data_global
#==============================================================================

# PROCESSING SUMMARY (IUCr Office Use Only)

_journal_date_recd_electronic      ?
_journal_date_to_coeditor         ?
_journal_date_from_coeditor       ?
_journal_date_accepted     ?
_journal_date_printers_first      ?
_journal_date_printers_final      ?
_journal_date_proofs_out          ?
_journal_date_proofs_in           ?
_journal_coeditor_name            ?
_journal_coeditor_code      ?
_journal_coeditor_notes
; ?
;
_journal_paper_category      ?
_journal_techeditor_code      ?
_iucr_compatibility_tag          ACTA95
_journal_techeditor_notes  
;
;
_journal_coden_ASTM               ?
_journal_name_full                ?
_journal_year                     ?
_journal_volume                   ?
_journal_issue                    ?
_journal_page_first               ?
_journal_page_last                ?
_journal_suppl_publ_number        ?
_journal_suppl_publ_pages         ?

#==============================================================================

#-----------------------------------------
_publ_contact_author
;
A. Alan Pinkerton
;
_publ_contact_author_email    apinker@utnet.utoledo.edu
_publ_contact_author_fax      1-419-530-4033
_publ_contact_author_phone    1-419-530-4580
_publ_contact_letter
;
Department of Chemistry,
University of Toledo,
2801 W. Bancroft st.,
Toledo, OH 43606, USA.
;
_publ_requested_journal       'Acta Crystallographica'
_publ_section_title
;
?
;
loop_
_publ_author_name
_publ_author_address
;
'Vladimir V. Zhurov'
;
;
Department of Chemistry,
University of Toledo,
2801 W. Bancroft st.,
Toledo, OH 43606, USA.
;
;
'Elizabeth A.Zhurova'
;
;
Department of Chemistry,
University of Toledo,
2801 W. Bancroft st.,
Toledo, OH 43606, USA.
;
;
'Adam I. Stash'
;
;
Karpov' Institute of Physical Chemistry
ul. Vorontsovo pole 10,
Moscow, 103064, Russia.
;
;
'A. Alan Pinkerton'
;
; 
Department of Chemistry,
University of Toledo,
2801 W. Bancroft st.,
Toledo, OH 43606, USA.
;
_publ_section_abstract
;
?
;
_publ_section_comment
;
?
;
_publ_section_exptl_prep
;
?
;
_publ_section_exptl_refinement
;
Neutral atoms radial functions were used from 
the VM scattering factor bank in XD.
;
_publ_section_references
;
CrystalClear, a program for collection and processing of single-crystal
diffraction data. Copyright 2005, Rigaku Americas Corp., 9009 New Trails
Dr., The Woodlands, TX, 77381.

Otwinowski, Z. & Minor, W. (1997) Methods in Enzymology, Vol. 276: 
Macromolecular Crystallography, part A, 307-326. 

Zhurov, V.V.; Zhurova, E.A.; Chen, Yu.-S.; Pinkerton, A.A. (2005) J. Appl.
Cryst. 38, 827-829.

Sheldrick, G.M. (1997) SHELXTL Vers.5.1. An Integrated System for Solving, 
Refining and Displaying Crystal Structures from Diffraction Data, Univ. of
Gottingen: Germany.

Volkov, A., Macchi, P., Farrugia, L.J., Gatti, C., Mallinson, P., 
Richter, T., Koritsanszky, T.; (2006) XD2006 - a computer program for 
multipole refinement, topological analysis of charge densities and evaluation 
of intermolecular energies from experimental or theoretical structure factors.
;

#-----------------------------------------
data_RDX20KAnharmonic
#-----------------------------------------
_exptl_crystal_description    'pyramid '
_exptl_crystal_colour          colorless
_exptl_crystal_size_max        0.23
_exptl_crystal_size_mid        0.23
_exptl_crystal_size_min        0.23
_chemical_formula_sum          'C3 H6 N6 O6 '
_chemical_formula_moiety       'C3 H6 N6 O6 '
_chemical_formula_weight       222.14
_exptl_crystal_F_000           912.0
_symmetry_cell_setting         Orthorhombic
_symmetry_space_group_name_H-M Pbca
_symmetry_space_group_name_Hall '-P 2ac 2ab' 
_cell_length_a                11.3790(2)
_cell_length_b                10.5694(2)
_cell_length_c                13.1314(2)
_cell_angle_alpha              90.000
_cell_angle_beta               90.000
_cell_angle_gamma              90.000
_cell_volume                   1579.30(5)
_cell_formula_units_Z          8
_exptl_crystal_density_diffrn  1.868


loop_
_symmetry_equiv_pos_site_id
_symmetry_equiv_pos_as_xyz
1        +X,+Y,+Z
2        1/2-X,-Y,1/2+Z
3        -X,1/2+Y,1/2-Z
4        1/2+X,1/2-Y,-Z
5        -X,-Y,-Z
6        1/2+X,+Y,1/2-Z
7        +X,1/2-Y,1/2+Z
8        1/2-X,1/2+Y,+Z
_cell_measurement_reflns_used    120142
_cell_measurement_theta_min      3.055
_cell_measurement_theta_max      69.98
_cell_measurement_temperature    20.0(1)
_diffrn_radiation_type           'Mo K\a'
_diffrn_radiation_wavelength     0.71073
_diffrn_ambient_temperature      20.0(1)
_exptl_absorpt_coefficient_mu    0.178
_exptl_absorpt_correction_T_min ?
_exptl_absorpt_correction_T_max ?
_diffrn_measurement_device       'Rigaku R-axis Rapid'
_diffrn_measurement_method       w
_exptl_absorpt_correction_type   none
_diffrn_reflns_number            120142
_reflns_number_total             10651
_reflns_number_gt                8057
_reflns_threshold_expression 'I>3\s, non-overlapped & non-partial reflections'
_diffrn_reflns_av_R_equivalents  0.0191
_diffrn_reflns_theta_max         69.98
_diffrn_reflns_theta_full        28.28
_diffrn_measured_fraction_theta_full 1.0
_diffrn_measured_fraction_theta_max  0.70
_diffrn_reflns_limit_h_min       -28
_diffrn_reflns_limit_h_max        28
_diffrn_reflns_limit_k_min       -15
_diffrn_reflns_limit_k_max        21
_diffrn_reflns_limit_l_min       -34
_diffrn_reflns_limit_l_max        34
_diffrn_standards_number          ?
_diffrn_standards_interval_time   ?
_diffrn_standards_decay_%         ?
_refine_ls_structure_factor_coef  Fsqd 
_refine_ls_R_factor_gt            0.0145
_refine_ls_wR_factor_ref          0.0104
_refine_ls_hydrogen_treatment     refall
_refine_ls_number_reflns          8057
_refine_ls_number_parameters      754
_refine_ls_goodness_of_fit_ref    0.90
_refine_ls_weighting_scheme       calc                        
_refine_ls_weighting_details
;    calc w2 = q/[s^2^(Fo^2^) + (0.006 P)^2^ + 0.008 P + 0.00 + 0.00 sin(th)]
     where P = (1.0000 Fo^2^ + 0.0000 Fc^2^)
           q = 1.0
;
_refine_ls_shift/su_max           0.0000
_refine_diff_density_max           0.19
_refine_diff_density_min          -0.17
_refine_ls_extinction_method      none
_refine_ls_extinction_coef        0.0                                   
_atom_type_scat_source          'Volkov et al, (2006)'
_computing_data_collection      'CrystalClear,(2005)'
_computing_cell_refinement      'Otwinowski & Minor (1997)'
_computing_data_reduction       'Zhurov et al,(2005)'
_computing_structure_solution   'Sheldrick (1997)'
_computing_structure_refinement 'Volkov et al, (2006)'
_computing_molecular_graphics   'Volkov et al, (2006)'
_computing_publication_material 'Volkov et al, (2006)'

# Atomic coordinates

loop_
_atom_site_label
_atom_site_fract_x
_atom_site_fract_y
_atom_site_fract_z
_atom_site_occupancy
_atom_site_symmetry_multiplicity
_atom_site_U_iso_or_equiv
O(1)    0.56754(4)     0.43545(7)     0.26809(3)     1    8    0.007
O(2)    0.59333(4)     0.23619(7)     0.22993(4)     1    8    0.008
O(3)    0.46378(4)     0.13223(7)    -0.02745(3)     1    8    0.009
O(4)    0.35040(4)     0.25476(7)    -0.11767(3)     1    8    0.008
O(5)    0.31937(4)     0.53406(7)    -0.07311(3)     1    8    0.008
O(6)    0.43403(4)     0.60542(7)     0.04655(4)     1    8    0.008
N(1)    0.43458(4)     0.33659(7)     0.17429(3)     1    8    0.005
N(2)    0.31745(4)     0.23613(6)     0.05024(3)     1    8    0.005
N(3)    0.29626(4)     0.46118(7)     0.08586(3)     1    8    0.005
N(4)    0.53670(3)     0.33581(5)     0.22798(2)     1    8    0.005
N(5)    0.38357(3)     0.20812(4)    -0.03739(2)     1    8    0.005
N(6)    0.35568(3)     0.53636(4)     0.01446(2)     1    8    0.005
C(1)    0.35515(3)     0.44488(5)     0.18351(2)     1    8    0.005
C(2)    0.37737(3)     0.21703(5)     0.14695(2)     1    8    0.005
C(3)    0.23957(3)     0.34644(4)     0.04640(3)     1    8    0.005
H(1A)   0.4032(9)      0.5282(11)     0.2040(7)      1    8    0.014
H(1B)   0.2869(9)      0.4241(9)      0.2388(7)      1    8    0.016
H(2A)   0.4394(10)     0.1427(11)     0.1418(7)      1    8    0.018
H(2B)   0.3104(9)      0.1948(9)      0.2034(7)      1    8    0.016
H(3A)   0.2085(9)      0.3617(9)     -0.0285(8)      1    8    0.014
H(3B)   0.1676(8)      0.3258(8)      0.0973(7)      1    8    0.013
 
# Dummy atom coordinates

loop_
_atom_dummy_label
_atom_dummy_fract_x
_atom_dummy_fract_y
_atom_dummy_fract_z
DUM0    0.3479         0.4709         0.2227
DUM1    0.3809         0.1675         0.1758
DUM2    0.1939         0.3351         0.0385
 
# Anisotropic displacement parameters

loop_
_atom_site_aniso_label
_atom_site_aniso_U_11
_atom_site_aniso_U_22
_atom_site_aniso_U_33
_atom_site_aniso_U_12
_atom_site_aniso_U_13
_atom_site_aniso_U_23
O(1) 0.00658(4) 0.00784(7) 0.00717(3) -0.00140(4) -0.00200(3) -0.00121(4)
O(2) 0.00656(4) 0.00766(8) 0.01082(4) 0.00191(5) -0.00243(3) 0.00074(5)
O(3) 0.00777(5) 0.00927(8) 0.00947(4) 0.00320(5) 0.00208(3) -0.00059(4)
O(4) 0.00991(5) 0.01081(8) 0.00405(3) 0.00061(5) 0.00063(3) 0.00035(4)
O(5) 0.00967(5) 0.00898(8) 0.00541(3) 0.00004(5) 0.00047(3) 0.00171(4)
O(6) 0.00683(5) 0.00713(8) 0.01081(5) -0.00247(5) 0.00099(3) -0.00015(5)
N(1) 0.00480(4) 0.00465(7) 0.00627(4) 0.00025(4) -0.00196(3) -0.00042(4)
N(2) 0.00490(4) 0.00520(7) 0.00386(3) 0.00036(4) -0.00019(2) -0.00048(4)
N(3) 0.00475(4) 0.00495(7) 0.00479(3) -0.00030(4) -0.00060(2) 0.00042(4)
N(4) 0.00430(3) 0.00581(7) 0.00467(3) -0.00021(4) -0.00092(2) 0.00044(3)
N(5) 0.00524(4) 0.00584(6) 0.00456(3) -0.00005(4) 0.00084(2) -0.00065(3)
N(6) 0.00493(4) 0.00495(6) 0.00584(3) 0.00012(4) 0.00072(2) 0.00057(3)
C(1) 0.00573(4) 0.00545(7) 0.00499(3) 0.00057(4) -0.00073(3) -0.00070(4)
C(2) 0.00638(4) 0.00490(7) 0.00475(3) -0.00047(4) -0.00086(3) 0.00037(4)
C(3) 0.00403(4) 0.00580(7) 0.00508(3) -0.00012(4) -0.00031(3) -0.00020(4)
H(1A) 0.013(3) 0.011(4) 0.017(3) -0.001(2) -0.0058(19) -0.003(2)
H(1B) 0.014(3) 0.021(3) 0.012(3) 0.002(2) 0.002(2) 0.001(2)
H(2A) 0.021(4) 0.020(5) 0.012(3) -0.004(3) -0.003(2) -0.001(2)
H(2B) 0.020(3) 0.016(3) 0.012(3) -0.006(2) 0.000(2) 0.0029(19)
H(3A) 0.014(3) 0.016(3) 0.013(3) -0.0004(19) -0.000(2) -0.002(2)
H(3B) 0.010(3) 0.012(3) 0.017(3) -0.0027(19) 0.005(2) -0.0010(19)
 
# Anharmonic displacement parameters
 
_atom_site_anharm_details
;
The atomic anharmonic pdf is approximated by a Gram-Charlier expansion
about the harmonic pdf, according to the expression :
 
      P(u) = (1 + Cijk*Hijk/3! + Dijkl*Hijkl/4!)*P(0)
 
The coefficients Cijk and Dijkl are refined in the least squares procedure.
The reported coefficients Cijk are multiplied by 1000 and Dijkl by 10000.
;
 
loop_
    _atom_site_anharm_GC_C_label
    _atom_site_anharm_GC_C_111
    _atom_site_anharm_GC_C_222
    _atom_site_anharm_GC_C_333
    _atom_site_anharm_GC_C_112
    _atom_site_anharm_GC_C_122
    _atom_site_anharm_GC_C_113
    _atom_site_anharm_GC_C_133
    _atom_site_anharm_GC_C_223
    _atom_site_anharm_GC_C_233
    _atom_site_anharm_GC_C_123
O(1) -0.000002(14) 0.00011(5) 0.000026(7) 0.000005(10) 0.000002(13) 0.000010(5)
0.000001(4) 0.000007(12) 0.000036(6) 0.000002(4)
O(2) 0.000034(15) -0.00008(5) -0.000014(9) -0.000041(10) 0.000023(14)
0.000010(5) 0.000006(5) -0.000023(14) -0.000025(8) -0.000010(5)
O(3) 0.000027(17) -0.00004(5) 0.000005(9) -0.000039(11) 0.000029(15)
-0.000001(6) 0.000008(5) 0.000022(13) -0.000023(7) 0.000008(5)
O(4) -0.000060(16) 0.00005(5) -0.000038(6) 0.000016(11) -0.000032(15)
-0.000011(5) -0.000009(4) -0.000013(11) 0.000016(6) 0.000005(4)
O(5) -0.000056(17) -0.00002(5) -0.000070(7) -0.000031(11) -0.000017(14)
-0.000020(5) -0.000001(4) -0.000040(12) 0.000003(6) -0.000002(5)
O(6) 0.000044(15) 0.00013(5) -0.000018(9) 0.000025(10) 0.000023(14) 0.000002(6)
0.000004(5) -0.000012(14) 0.000017(8) -0.000003(5)
N(1) 0.000014(14) 0.00004(5) -0.000000(7) -0.000007(10) 0.000017(13)
-0.000013(5) -0.000007(4) 0.000003(12) 0.000004(7) 0.000007(4)
N(2) -0.000015(14) -0.00000(5) -0.000007(6) 0.000005(9) -0.000002(12)
0.000001(4) -0.000013(4) 0.000018(11) 0.000012(6) -0.000001(4)
N(3) 0.000013(14) 0.00004(5) -0.000008(7) 0.000003(9) 0.000007(12) -0.000005(4)
-0.000008(4) 0.000014(11) 0.000001(6) 0.000010(4)
N(4) 0.000004(11) 0.00007(4) 0.000018(5) -0.000012(8) 0.000011(11) 0.000002(4)
0.000001(3) 0.000011(10) 0.000005(5) 0.000002(4)
N(5) 0.000012(12) 0.00003(4) -0.000002(6) 0.000001(8) 0.000007(11) -0.000000(4)
-0.000006(4) 0.000010(10) 0.000016(5) 0.000006(4)
N(6) -0.000002(12) -0.00006(4) -0.000006(6) -0.000021(8) -0.000021(11)
-0.000001(4) -0.000003(4) 0.000006(10) -0.000009(6) 0.000003(4)
C(1) -0.000014(14) 0.00006(4) 0.000017(6) 0.000031(10) -0.000003(13)
-0.000001(5) 0.000002(4) 0.000009(11) 0.000009(6) 0.000004(4)
C(2) 0.000005(15) -0.00000(4) -0.000003(6) 0.000005(10) -0.000021(13)
-0.000005(5) 0.000006(4) 0.000010(11) -0.000012(6) -0.000007(5)
C(3) -0.000019(13) 0.00003(4) -0.000003(7) -0.000021(9) -0.000040(12)
-0.000005(4) -0.000008(4) 0.000006(11) 0.000003(6) -0.000010(4)
 
loop_
_geom_bond_atom_site_label_1
_geom_bond_atom_site_label_2
_geom_bond_distance
_geom_bond_site_symmetry_1
_geom_bond_site_symmetry_2
_geom_bond_publ_flag
O(1)     N(4)      1.2288(7)           1_555     1_555     yes
O(2)     N(4)      1.2347(8)           1_555     1_555     yes
O(3)     N(5)      1.2220(6)           1_555     1_555     yes
O(4)     N(5)      1.2234(5)           1_555     1_555     yes
O(5)     N(6)      1.2220(5)           1_555     1_555     yes
O(6)     N(6)      1.2270(6)           1_555     1_555     yes
N(1)     N(4)      1.3592(5)           1_555     1_555     yes
N(1)     C(1)      1.4634(8)           1_555     1_555     yes
N(1)     C(2)      1.4661(8)           1_555     1_555     yes
N(2)     N(5)      1.4063(5)           1_555     1_555     yes
N(2)     C(2)      1.4555(5)           1_555     1_555     yes
N(2)     C(3)      1.4654(7)           1_555     1_555     yes
N(3)     N(6)      1.4027(6)           1_555     1_555     yes
N(3)     C(1)      1.4570(5)           1_555     1_555     yes
N(3)     C(3)      1.4681(7)           1_555     1_555     yes
C(1)     H(1A)     1.070(12)           1_555     1_555     yes
C(1)     H(1B)     1.085(10)           1_555     1_555     yes
C(2)     H(2A)     1.059(13)           1_555     1_555     yes
C(2)     H(2B)     1.089(11)           1_555     1_555     yes
C(3)     H(3A)     1.058(11)           1_555     1_555     yes
C(3)     H(3B)     1.079(10)           1_555     1_555     yes
 
loop_
_geom_angle_atom_site_label_1
_geom_angle_atom_site_label_2
_geom_angle_atom_site_label_3
_geom_angle
_geom_angle_site_symmetry_1
_geom_angle_site_symmetry_2
_geom_angle_site_symmetry_3
_geom_angle_publ_flag
N(4)     N(1)      C(1)      119.33(5)         1_555    1_555    1_555    yes
N(4)     N(1)      C(2)      120.09(6)         1_555    1_555    1_555    yes
C(1)     N(1)      C(2)      114.85(4)         1_555    1_555    1_555    yes
N(5)     N(2)      C(2)      115.73(4)         1_555    1_555    1_555    yes
N(5)     N(2)      C(3)      117.57(4)         1_555    1_555    1_555    yes
C(2)     N(2)      C(3)      115.07(4)         1_555    1_555    1_555    yes
N(6)     N(3)      C(1)      115.70(4)         1_555    1_555    1_555    yes
N(6)     N(3)      C(3)      116.34(4)         1_555    1_555    1_555    yes
C(1)     N(3)      C(3)      114.52(5)         1_555    1_555    1_555    yes
O(1)     N(4)      O(2)      124.95(5)         1_555    1_555    1_555    yes
O(1)     N(4)      N(1)      117.47(6)         1_555    1_555    1_555    yes
O(2)     N(4)      N(1)      117.53(6)         1_555    1_555    1_555    yes
O(3)     N(5)      O(4)      125.94(4)         1_555    1_555    1_555    yes
O(3)     N(5)      N(2)      116.77(4)         1_555    1_555    1_555    yes
O(4)     N(5)      N(2)      117.08(5)         1_555    1_555    1_555    yes
O(5)     N(6)      O(6)      125.50(5)         1_555    1_555    1_555    yes
O(5)     N(6)      N(3)      117.05(5)         1_555    1_555    1_555    yes
O(6)     N(6)      N(3)      117.24(4)         1_555    1_555    1_555    yes
N(1)     C(1)      N(3)      107.68(4)         1_555    1_555    1_555    yes
N(1)     C(1)      H(1A)     110.4(5)          1_555    1_555    1_555    yes
N(1)     C(1)      H(1B)     109.8(5)          1_555    1_555    1_555    yes
N(3)     C(1)      H(1A)     111.0(5)          1_555    1_555    1_555    yes
N(3)     C(1)      H(1B)     106.5(5)          1_555    1_555    1_555    yes
H(1A)    C(1)      H(1B)     111.3(7)          1_555    1_555    1_555    yes
N(1)     C(2)      N(2)      107.58(4)         1_555    1_555    1_555    yes
N(1)     C(2)      H(2A)     111.1(5)          1_555    1_555    1_555    yes
N(1)     C(2)      H(2B)     109.3(5)          1_555    1_555    1_555    yes
N(2)     C(2)      H(2A)     111.1(5)          1_555    1_555    1_555    yes
N(2)     C(2)      H(2B)     107.2(5)          1_555    1_555    1_555    yes
H(2A)    C(2)      H(2B)     110.5(7)          1_555    1_555    1_555    yes
N(2)     C(3)      N(3)      112.29(4)         1_555    1_555    1_555    yes
N(2)     C(3)      H(3A)     110.9(5)          1_555    1_555    1_555    yes
N(2)     C(3)      H(3B)     106.1(5)          1_555    1_555    1_555    yes
N(3)     C(3)      H(3A)     110.4(5)          1_555    1_555    1_555    yes
N(3)     C(3)      H(3B)     106.4(5)          1_555    1_555    1_555    yes
H(3A)    C(3)      H(3B)     110.7(7)          1_555    1_555    1_555    yes
 
# Multipole parameters

loop_
_atom_rho_multipole_atom_label
_atom_rho_multipole_coeff_Pv
_atom_rho_multipole_coeff_P00
_atom_rho_multipole_coeff_P11
_atom_rho_multipole_coeff_P1-1
_atom_rho_multipole_coeff_P10
_atom_rho_multipole_coeff_P20
_atom_rho_multipole_coeff_P21
_atom_rho_multipole_coeff_P2-1
_atom_rho_multipole_coeff_P22
_atom_rho_multipole_coeff_P2-2
_atom_rho_multipole_coeff_P30
_atom_rho_multipole_coeff_P31
_atom_rho_multipole_coeff_P3-1
_atom_rho_multipole_coeff_P32
_atom_rho_multipole_coeff_P3-2
_atom_rho_multipole_coeff_P33
_atom_rho_multipole_coeff_P3-3
_atom_rho_multipole_coeff_P40
_atom_rho_multipole_coeff_P41
_atom_rho_multipole_coeff_P4-1
_atom_rho_multipole_coeff_P42
_atom_rho_multipole_coeff_P4-2
_atom_rho_multipole_coeff_P43
_atom_rho_multipole_coeff_P4-3
_atom_rho_multipole_coeff_P44
_atom_rho_multipole_coeff_P4-4
_atom_rho_multipole_kappa
_atom_rho_multipole_kappa_prime0
_atom_rho_multipole_kappa_prime1
_atom_rho_multipole_kappa_prime2
_atom_rho_multipole_kappa_prime3
_atom_rho_multipole_kappa_prime4
_atom_rho_multipole_radial_slater_n0
_atom_rho_multipole_radial_slater_zeta0
_atom_rho_multipole_radial_slater_n1
_atom_rho_multipole_radial_slater_zeta1
_atom_rho_multipole_radial_slater_n2
_atom_rho_multipole_radial_slater_zeta2
_atom_rho_multipole_radial_slater_n3
_atom_rho_multipole_radial_slater_zeta3
_atom_rho_multipole_radial_slater_n4
_atom_rho_multipole_radial_slater_zeta4
O(1) 6.073(15) 0 0.010(9) -0.084(12) -0.015(8)
-0.042(5) 0.013(4) -0.017(5) 0.142(6) 0.011(6)
-0.001(5) 0.002(5) -0.016(5) 0.005(5) -0.000(5) -0.010(6) -0.039(6)
-0.002(6) -0.001(5) -0.008(5) 0.001(5) -0.001(5) -0.008(5) 0.005(5) 0.023(5)
0.002(5)
0.9939(8) 0.906(11) 0.906232 0.906232 0.906232 0.906232
2 4.4974 2 4.4974 2 4.4974 3 4.4974 4 4.4974
O(2) 6.107(15) 0 0.009(9) -0.062(12) 0.003(9)
-0.045(5) -0.011(5) 0.000(6) 0.132(6) 0.007(6)
0.006(5) 0.001(5) -0.034(6) -0.005(5) -0.000(6) -0.007(6) -0.038(6)
0.006(6) 0.000(5) 0.000(5) 0.015(6) -0.001(5) -0.006(6) -0.006(5) 0.021(6)
-0.001(5)
0.9939(8) 0.906(11) 0.906232 0.906232 0.906232 0.906232
2 4.4974 2 4.4974 2 4.4974 3 4.4974 4 4.4974
O(3) 6.074(16) 0 0.008(8) -0.077(11) 0.017(10)
-0.037(6) 0.007(5) 0.004(6) 0.126(6) 0.004(5)
-0.005(6) 0.003(5) -0.029(6) 0.001(6) 0.000(6) -0.012(5) -0.030(6)
0.017(6) 0.003(5) -0.003(6) 0.025(6) 0.002(6) 0.005(6) 0.003(5) 0.009(5)
-0.009(5)
0.9939(8) 0.906(11) 0.906232 0.906232 0.906232 0.906232
2 4.4974 2 4.4974 2 4.4974 3 4.4974 4 4.4974
O(4) 6.087(14) 0 0.022(9) -0.086(9) -0.003(9)
-0.041(5) -0.006(5) 0.002(5) 0.149(5) 0.021(5)
-0.006(5) -0.003(5) -0.023(6) 0.001(5) -0.004(6) -0.012(5) -0.028(5)
0.014(6) -0.005(5) -0.003(5) 0.001(5) -0.010(5) 0.004(5) -0.003(5) 0.004(5)
-0.005(5)
0.9939(8) 0.906(11) 0.906232 0.906232 0.906232 0.906232
2 4.4974 2 4.4974 2 4.4974 3 4.4974 4 4.4974
O(5) 6.062(14) 0 -0.002(9) -0.084(8) -0.003(9)
-0.035(5) 0.009(5) 0.012(5) 0.165(5) 0.012(5)
-0.002(5) -0.002(5) -0.020(5) -0.003(5) 0.002(5) -0.002(5) -0.026(5)
0.014(6) -0.001(5) 0.005(5) -0.002(5) -0.007(5) 0.004(5) -0.004(5) 0.003(5)
-0.004(5)
0.9939(8) 0.906(11) 0.906232 0.906232 0.906232 0.906232
2 4.4974 2 4.4974 2 4.4974 3 4.4974 4 4.4974
O(6) 6.079(15) 0 -0.029(9) -0.082(11) -0.021(10)
-0.025(5) 0.010(5) -0.005(6) 0.129(6) -0.017(5)
0.008(5) 0.001(5) -0.024(6) 0.010(5) 0.006(6) 0.000(5) -0.032(6)
0.008(6) -0.001(5) 0.005(5) 0.018(5) 0.007(5) 0.000(5) 0.008(5) 0.012(5)
-0.007(5)
0.9939(8) 0.906(11) 0.906232 0.906232 0.906232 0.906232
2 4.4974 2 4.4974 2 4.4974 3 4.4974 4 4.4974
N(1) 4.93(2) 0 -0.053(8) -0.001(10) 0.036(7)
0.065(4) -0.003(4) -0.024(5) -0.050(5) 0.007(5)
0.030(5) -0.012(4) -0.026(5) 0.026(5) -0.038(5) 0.130(6) -0.002(6)
0.014(5) 0.003(5) -0.007(5) -0.011(5) 0.004(5) -0.021(5) -0.005(6) -0.001(6)
0.009(6)
0.9975(13) 1.080(15) 1.080134 1.080134 1.080134 1.080134
2 3.81056 2 3.81056 2 3.81056 3 3.81056 4 3.81056
N(2) 4.933(19) 0 -0.057(7) -0.024(8) -0.062(7)
0.090(4) 0.006(4) 0.043(4) -0.071(4) -0.012(4)
-0.035(5) -0.025(5) -0.042(5) -0.033(5) 0.041(5) 0.120(5) -0.016(5)
0.014(5) -0.002(5) -0.005(5) -0.010(5) 0.023(5) 0.015(5) -0.001(6) 0.006(5)
0.013(5)
0.9975(13) 1.080(15) 1.080134 1.080134 1.080134 1.080134
2 3.81056 2 3.81056 2 3.81056 3 3.81056 4 3.81056
N(3) 4.943(19) 0 -0.063(8) -0.030(7) -0.054(8)
0.084(4) -0.003(4) 0.038(4) -0.061(4) 0.021(4)
-0.021(5) -0.030(5) -0.050(5) -0.019(5) 0.046(5) 0.126(5) -0.017(5)
0.013(6) 0.003(5) -0.001(5) -0.018(5) 0.007(5) 0.027(5) -0.006(6) 0.006(5)
0.013(5)
0.9975(13) 1.080(15) 1.080134 1.080134 1.080134 1.080134
2 3.81056 2 3.81056 2 3.81056 3 3.81056 4 3.81056
N(4) 5.05(2) 0 -0.028(11) 0.019(14) 0.010(8)
-0.246(8) -0.026(5) 0.008(6) -0.100(8) -0.007(8)
-0.007(8) -0.001(7) -0.026(8) -0.022(8) -0.003(8) 0.409(12) 0.002(10)
0.015(9) 0.004(8) -0.001(8) -0.003(9) 0.015(9) 0.021(10) 0.008(10) 0.047(13)
0.002(13)
0.9826(17) 0.796(6) 0.795648 0.795648 0.795648 0.795648
2 3.81056 2 3.81056 2 3.81056 3 3.81056 4 3.81056
N(5) 5.09(2) 0 -0.053(10) -0.004(12) -0.001(8)
-0.234(8) 0.030(6) 0.012(7) -0.118(7) -0.019(7)
0.009(8) -0.002(7) 0.001(8) 0.041(8) -0.021(8) 0.426(12) -0.006(9)
0.032(9) -0.013(8) 0.006(9) -0.009(9) 0.008(9) -0.003(10) -0.003(10) 0.064(12)
-0.008(12)
0.9826(17) 0.796(6) 0.795648 0.795648 0.795648 0.795648
2 3.81056 2 3.81056 2 3.81056 3 3.81056 4 3.81056
N(6) 5.08(2) 0 -0.066(11) 0.010(11) -0.016(8)
-0.230(7) 0.037(6) 0.024(6) -0.110(7) 0.010(7)
0.025(8) 0.005(7) -0.003(8) 0.047(8) -0.030(8) 0.433(12) -0.022(9)
0.031(9) -0.011(8) -0.015(9) -0.009(9) -0.010(9) -0.025(10) -0.006(10) 0.031(12)
0.014(12)
0.9826(17) 0.796(6) 0.795648 0.795648 0.795648 0.795648
2 3.81056 2 3.81056 2 3.81056 3 3.81056 4 3.81056
C(1) 4.20(5) 0 0.020(18) 0.015(9) 0.109(13)
-0.022(7) 0.026(11) 0.013(7) 0.143(9) -0.015(7)
-0.002(9) -0.023(11) 0.072(8) 0.455(14) -0.063(10) 0.037(9) 0.061(9)
-0.124(11) -0.019(12) -0.035(9) -0.024(11) -0.012(10) -0.001(11) 0.003(11)
0.116(10) -0.036(10)
0.980(3) 0.898(7) 0.898453 0.898453 0.898453 0.898453
2 3.1303 2 3.1303 2 3.1303 3 3.1303 4 3.1303
C(2) 4.16(5) 0 -0.01(2) -0.004(10) 0.101(15)
-0.003(7) 0.020(12) -0.005(7) 0.132(9) 0.005(7)
-0.011(9) 0.043(12) -0.067(8) 0.454(14) 0.008(11) -0.032(9) -0.055(9)
-0.115(11) 0.022(12) 0.048(10) -0.029(11) 0.017(11) 0.009(11) -0.012(11)
0.115(10) 0.003(10)
0.980(3) 0.898(7) 0.898453 0.898453 0.898453 0.898453
2 3.1303 2 3.1303 2 3.1303 3 3.1303 4 3.1303
C(3) 4.16(5) 0 0.017(16) -0.004(10) 0.102(13)
-0.015(7) -0.014(9) -0.020(7) 0.127(9) -0.040(7)
-0.011(9) -0.090(10) -0.116(8) 0.414(13) -0.093(10) 0.025(9) -0.104(9)
-0.092(11) -0.019(11) 0.062(10) 0.008(11) 0.007(10) -0.017(11) -0.023(11)
0.097(10) -0.056(10)
0.980(3) 0.898(7) 0.898453 0.898453 0.898453 0.898453
2 3.1303 2 3.1303 2 3.1303 3 3.1303 4 3.1303
H(1A) 0.79(3) 0 0.003(15) 0.001(16) 0.123(19)
0.039(14) 0 0 0 0
0 0 0 0 0 0 0
0 0 0 0 0 0 0 0 0
1.195549 1.2 1.2 1.2 1.2 1.2
0 1.9154 1 1.9154 2 1.9154 3 1.9154 4 1.9154
H(1B) 0.86(3) 0 0.003(15) 0.005(16) 0.127(18)
0.046(14) 0 0 0 0
0 0 0 0 0 0 0
0 0 0 0 0 0 0 0 0
1.195549 1.2 1.2 1.2 1.2 1.2
0 1.9154 1 1.9154 2 1.9154 3 1.9154 4 1.9154
H(2A) 0.84(4) 0 0.006(16) -0.022(17) 0.14(2)
0.029(14) 0 0 0 0
0 0 0 0 0 0 0
0 0 0 0 0 0 0 0 0
1.195549 1.2 1.2 1.2 1.2 1.2
0 1.9154 1 1.9154 2 1.9154 3 1.9154 4 1.9154
H(2B) 0.86(3) 0 -0.008(15) 0.004(16) 0.136(18)
0.056(14) 0 0 0 0
0 0 0 0 0 0 0
0 0 0 0 0 0 0 0 0
1.195549 1.2 1.2 1.2 1.2 1.2
0 1.9154 1 1.9154 2 1.9154 3 1.9154 4 1.9154
H(3A) 0.81(3) 0 -0.018(15) -0.020(16) 0.108(19)
0.027(14) 0 0 0 0
0 0 0 0 0 0 0
0 0 0 0 0 0 0 0 0
1.195549 1.2 1.2 1.2 1.2 1.2
0 1.9154 1 1.9154 2 1.9154 3 1.9154 4 1.9154
H(3B) 0.83(2) 0 -0.006(15) 0.011(15) 0.137(16)
0.064(13) 0 0 0 0
0 0 0 0 0 0 0
0 0 0 0 0 0 0 0 0
1.195549 1.2 1.2 1.2 1.2 1.2
0 1.9154 1 1.9154 2 1.9154 3 1.9154 4 1.9154
 
loop_
_atom_local_axes_atom_label
_atom_local_axes_atom0
_atom_local_axes_ax1
_atom_local_axes_atom1
_atom_local_axes_atom2
_atom_local_axes_ax2
O(1)       N(4)        Y           O(1)        O(2)        X
O(2)       N(4)        Y           O(2)        O(1)        X
O(3)       N(5)        Y           O(3)        O(4)        X
O(4)       N(5)        Y           O(4)        O(3)        X
O(5)       N(6)        Y           O(5)        O(6)        X
O(6)       N(6)        Y           O(6)        O(5)        X
N(1)       N(4)        X           N(1)        C(2)        Y
N(2)       N(5)        X           N(2)        C(3)        Y
N(3)       N(6)        X           N(3)        C(1)        Y
N(4)       N(1)        X           N(4)        O(1)        Y
N(5)       N(2)        X           N(5)        O(3)        Y
N(6)       N(3)        X           N(6)        O(5)        Y
C(1)       DUM0        Z           C(1)        N(3)        Y
C(2)       DUM1        Z           C(2)        N(1)        Y
C(3)       DUM2        Z           C(3)        N(2)        Y
H(1A)      C(1)        Z           H(1A)       H(1B)       Y
H(1B)      C(1)        Z           H(1B)       H(1A)       Y
H(2A)      C(2)        Z           H(2A)       H(2B)       Y
H(2B)      C(2)        Z           H(2B)       H(2A)       Y
H(3A)      C(3)        Z           H(3A)       H(3B)       Y
H(3B)      C(3)        Z           H(3B)       H(3A)       Y

#-----------------------------------------
data_RDX20KHarmonic
#-----------------------------------------
_exptl_crystal_description    'pyramid '
_exptl_crystal_colour          colorless
_exptl_crystal_size_max        0.23
_exptl_crystal_size_mid        0.23
_exptl_crystal_size_min        0.23
_chemical_formula_sum          'C3 H6 N6 O6 '
_chemical_formula_moiety       'C3 H6 N6 O6 '
_chemical_formula_weight       222.14
_exptl_crystal_F_000           912.0
_symmetry_cell_setting         Orthorhombic
_symmetry_space_group_name_H-M Pbca
_symmetry_space_group_name_Hall '-P 2ac 2ab' 
_cell_length_a                11.3790(2)
_cell_length_b                10.5694(2)
_cell_length_c                13.1314(2)
_cell_angle_alpha              90.000
_cell_angle_beta               90.000
_cell_angle_gamma              90.000
_cell_volume                   1579.30(5)
_cell_formula_units_Z          8
_exptl_crystal_density_diffrn  1.868
loop_
_symmetry_equiv_pos_site_id
_symmetry_equiv_pos_as_xyz
1        +X,+Y,+Z
2        1/2-X,-Y,1/2+Z
3        -X,1/2+Y,1/2-Z
4        1/2+X,1/2-Y,-Z
5        -X,-Y,-Z
6        1/2+X,+Y,1/2-Z
7        +X,1/2-Y,1/2+Z
8        1/2-X,1/2+Y,+Z
_cell_measurement_reflns_used    120142
_cell_measurement_theta_min      3.055
_cell_measurement_theta_max      69.98
_cell_measurement_temperature    20.0(1)
_diffrn_radiation_type           'Mo K\a'
_diffrn_radiation_wavelength     0.71073
_diffrn_ambient_temperature      20.0(1)
_exptl_absorpt_coefficient_mu    0.178
_exptl_absorpt_correction_T_min ?
_exptl_absorpt_correction_T_max ?
_diffrn_measurement_device       'Rigaku R-axis Rapid'
_diffrn_measurement_method       w
_exptl_absorpt_correction_type   none
_diffrn_reflns_number            120142
_reflns_number_total             10651
_reflns_number_gt                8057
_reflns_threshold_expression 'I>3\s, non-overlapped & non-partial reflections'
_diffrn_reflns_av_R_equivalents  0.0191
_diffrn_reflns_theta_max         69.98
_diffrn_reflns_theta_full        28.28
_diffrn_measured_fraction_theta_full 1.0
_diffrn_measured_fraction_theta_max  0.70
_diffrn_reflns_limit_h_min       -28
_diffrn_reflns_limit_h_max        28
_diffrn_reflns_limit_k_min       -15
_diffrn_reflns_limit_k_max        21
_diffrn_reflns_limit_l_min       -34
_diffrn_reflns_limit_l_max        34
_diffrn_standards_number          ?
_diffrn_standards_interval_time   ?
_diffrn_standards_decay_%         ?
_refine_ls_structure_factor_coef  Fsqd 
_refine_ls_R_factor_gt            0.0149
_refine_ls_wR_factor_ref          0.0112
_refine_ls_hydrogen_treatment     refall
_refine_ls_number_reflns          8057
_refine_ls_number_parameters      604
_refine_ls_goodness_of_fit_ref    0.86
_refine_ls_weighting_scheme       calc                        
_refine_ls_weighting_details
;    calc w2 = q/[s^2^(Fo^2^) + (0.006 P)^2^ + 0.012 P + 0.00 + 0.00 sin(th)]
     where P = (1.0000 Fo^2^ + 0.0000 Fc^2^)
           q = 1.0
;
_refine_ls_shift/su_max           0.0000
_refine_diff_density_max           0.19
_refine_diff_density_min          -0.20
_refine_ls_extinction_method      none
_refine_ls_extinction_coef        0.0                                   
_atom_type_scat_source          'Volkov et al, (2006)'
_computing_data_collection      'CrystalClear,(2005)'
_computing_cell_refinement      'Otwinowski & Minor (1997)'
_computing_data_reduction       'Zhurov et al,(2005)'
_computing_structure_solution   'Sheldrick (1997)'
_computing_structure_refinement 'Volkov et al, (2006)'
_computing_molecular_graphics   'Volkov et al, (2006)'
_computing_publication_material 'Volkov et al, (2006)'

# Atomic coordinates

loop_
_atom_site_label
_atom_site_fract_x
_atom_site_fract_y
_atom_site_fract_z
_atom_site_occupancy
_atom_site_symmetry_multiplicity
_atom_site_U_iso_or_equiv
O(1)    0.567533(15)   0.43518(2)     0.267970(12)   1    8    0.007
O(2)    0.593197(16)   0.23647(2)     0.229961(13)   1    8    0.008
O(3)    0.463641(17)   0.13247(2)    -0.027480(13)   1    8    0.009
O(4)    0.350573(16)   0.25460(2)    -0.117490(11)   1    8    0.008
O(5)    0.319494(16)   0.53412(2)    -0.072786(11)   1    8    0.008
O(6)    0.433891(16)   0.60516(2)     0.046596(13)   1    8    0.008
N(1)    0.434558(14)   0.33655(2)     0.174315(11)   1    8    0.005
N(2)    0.317528(13)   0.236081(19)   0.050244(10)   1    8    0.005
N(3)    0.296262(13)   0.46114(2)     0.085876(10)   1    8    0.005
N(4)    0.536675(11)   0.335765(17)   0.227919(9)    1    8    0.005
N(5)    0.383556(12)   0.208053(16)  -0.037389(9)    1    8    0.005
N(6)    0.355713(12)   0.536468(16)   0.014473(9)    1    8    0.005
C(1)    0.355164(14)   0.444755(19)   0.183464(10)   1    8    0.005
C(2)    0.377369(14)   0.217061(19)   0.146953(10)   1    8    0.005
C(3)    0.239662(12)   0.346451(17)   0.046408(10)   1    8    0.005
H(1A)   0.4028(10)     0.5281(12)     0.2041(8)      1    8    0.012
H(1B)   0.2868(9)      0.4240(10)     0.2390(8)      1    8    0.015
H(2A)   0.4392(11)     0.1428(12)     0.1420(8)      1    8    0.016
H(2B)   0.3106(10)     0.1949(10)     0.2035(8)      1    8    0.016
H(3A)   0.2083(10)     0.3618(10)    -0.0283(9)      1    8    0.013
H(3B)   0.1678(9)      0.3257(9)      0.0971(8)      1    8    0.012
 
# Dummy atom coordinates

loop_
_atom_dummy_label
_atom_dummy_fract_x
_atom_dummy_fract_y
_atom_dummy_fract_z
DUM0    0.3479         0.4709         0.2227
DUM1    0.3809         0.1675         0.1758
DUM2    0.1939         0.3351         0.0385
 
# Anisotropic displacement parameters

loop_
_atom_site_aniso_label
_atom_site_aniso_U_11
_atom_site_aniso_U_22
_atom_site_aniso_U_33
_atom_site_aniso_U_12
_atom_site_aniso_U_13
_atom_site_aniso_U_23
O(1) 0.00650(5) 0.00785(8) 0.00721(4) -0.00133(5) -0.00201(3) -0.00118(4)
O(2) 0.00651(5) 0.00768(8) 0.01081(5) 0.00179(5) -0.00246(3) 0.00071(5)
O(3) 0.00782(5) 0.00929(9) 0.00935(5) 0.00314(5) 0.00210(3) -0.00060(5)
O(4) 0.00986(5) 0.01079(8) 0.00408(3) 0.00068(5) 0.00069(3) 0.00030(4)
O(5) 0.00965(5) 0.00888(8) 0.00547(4) -0.00005(5) 0.00049(3) 0.00172(4)
O(6) 0.00689(5) 0.00714(8) 0.01075(5) -0.00244(5) 0.00100(4) -0.00009(5)
N(1) 0.00481(4) 0.00466(7) 0.00626(4) 0.00027(4) -0.00195(3) -0.00042(4)
N(2) 0.00490(4) 0.00518(7) 0.00386(3) 0.00034(4) -0.00018(3) -0.00047(4)
N(3) 0.00475(4) 0.00494(7) 0.00479(3) -0.00032(4) -0.00061(3) 0.00040(4)
N(4) 0.00429(4) 0.00574(7) 0.00469(3) -0.00021(4) -0.00094(2) 0.00041(3)
N(5) 0.00523(4) 0.00586(7) 0.00455(3) -0.00003(4) 0.00085(2) -0.00064(3)
N(6) 0.00493(4) 0.00495(6) 0.00583(3) 0.00011(4) 0.00071(2) 0.00056(3)
C(1) 0.00575(4) 0.00543(7) 0.00499(4) 0.00054(4) -0.00073(3) -0.00071(4)
C(2) 0.00642(5) 0.00487(7) 0.00476(4) -0.00047(4) -0.00087(3) 0.00039(4)
C(3) 0.00403(4) 0.00583(7) 0.00508(4) -0.00012(4) -0.00031(3) -0.00018(4)
H(1A) 0.011(3) 0.009(4) 0.016(3) -0.002(3) -0.006(2) -0.003(2)
H(1B) 0.013(3) 0.020(3) 0.012(3) 0.002(2) 0.002(2) 0.002(2)
H(2A) 0.019(4) 0.018(4) 0.012(3) -0.002(3) -0.003(2) -0.001(2)
H(2B) 0.021(4) 0.016(3) 0.012(3) -0.005(2) 0.000(2) 0.003(2)
H(3A) 0.014(3) 0.014(3) 0.011(3) -0.001(2) 0.000(2) -0.002(2)
H(3B) 0.009(3) 0.011(3) 0.016(3) -0.002(2) 0.006(2) -0.001(2)
 
loop_
_geom_bond_atom_site_label_1
_geom_bond_atom_site_label_2
_geom_bond_distance
_geom_bond_site_symmetry_1
_geom_bond_site_symmetry_2
_geom_bond_publ_flag
O(1)     N(4)      1.2263(3)           1_555     1_555     yes
O(2)     N(4)      1.2312(3)           1_555     1_555     yes
O(3)     N(5)      1.2189(2)           1_555     1_555     yes
O(4)     N(5)      1.2203(2)           1_555     1_555     yes
O(5)     N(6)      1.2180(2)           1_555     1_555     yes
O(6)     N(6)      1.2233(2)           1_555     1_555     yes
N(1)     N(4)      1.35859(19)         1_555     1_555     yes
N(1)     C(1)      1.4624(3)           1_555     1_555     yes
N(1)     C(2)      1.4654(3)           1_555     1_555     yes
N(2)     N(5)      1.40587(19)         1_555     1_555     yes
N(2)     C(2)      1.45492(19)         1_555     1_555     yes
N(2)     C(3)      1.4658(2)           1_555     1_555     yes
N(3)     N(6)      1.4038(2)           1_555     1_555     yes
N(3)     C(1)      1.45650(19)         1_555     1_555     yes
N(3)     C(3)      1.4673(2)           1_555     1_555     yes
C(1)     H(1A)     1.069(12)           1_555     1_555     yes
C(1)     H(1B)     1.089(11)           1_555     1_555     yes
C(2)     H(2A)     1.056(13)           1_555     1_555     yes
C(2)     H(2B)     1.088(11)           1_555     1_555     yes
C(3)     H(3A)     1.056(12)           1_555     1_555     yes
C(3)     H(3B)     1.077(11)           1_555     1_555     yes
 
loop_
_geom_angle_atom_site_label_1
_geom_angle_atom_site_label_2
_geom_angle_atom_site_label_3
_geom_angle
_geom_angle_site_symmetry_1
_geom_angle_site_symmetry_2
_geom_angle_site_symmetry_3
_geom_angle_publ_flag
N(4)     N(1)      C(1)      119.379(17)       1_555    1_555    1_555    yes
N(4)     N(1)      C(2)      120.105(18)       1_555    1_555    1_555    yes
C(1)     N(1)      C(2)      114.821(14)       1_555    1_555    1_555    yes
N(5)     N(2)      C(2)      115.799(14)       1_555    1_555    1_555    yes
N(5)     N(2)      C(3)      117.557(14)       1_555    1_555    1_555    yes
C(2)     N(2)      C(3)      115.016(14)       1_555    1_555    1_555    yes
N(6)     N(3)      C(1)      115.680(14)       1_555    1_555    1_555    yes
N(6)     N(3)      C(3)      116.370(13)       1_555    1_555    1_555    yes
C(1)     N(3)      C(3)      114.489(16)       1_555    1_555    1_555    yes
O(1)     N(4)      O(2)      124.850(17)       1_555    1_555    1_555    yes
O(1)     N(4)      N(1)      117.508(18)       1_555    1_555    1_555    yes
O(2)     N(4)      N(1)      117.599(19)       1_555    1_555    1_555    yes
O(3)     N(5)      O(4)      125.886(16)       1_555    1_555    1_555    yes
O(3)     N(5)      N(2)      116.763(15)       1_555    1_555    1_555    yes
O(4)     N(5)      N(2)      117.143(16)       1_555    1_555    1_555    yes
O(5)     N(6)      O(6)      125.632(18)       1_555    1_555    1_555    yes
O(5)     N(6)      N(3)      116.985(17)       1_555    1_555    1_555    yes
O(6)     N(6)      N(3)      117.176(14)       1_555    1_555    1_555    yes
N(1)     C(1)      N(3)      107.759(13)       1_555    1_555    1_555    yes
N(1)     C(1)      H(1A)     110.6(6)          1_555    1_555    1_555    yes
N(1)     C(1)      H(1B)     109.8(5)          1_555    1_555    1_555    yes
N(3)     C(1)      H(1A)     111.0(6)          1_555    1_555    1_555    yes
N(3)     C(1)      H(1B)     106.6(5)          1_555    1_555    1_555    yes
H(1A)    C(1)      H(1B)     111.0(8)          1_555    1_555    1_555    yes
N(1)     C(2)      N(2)      107.623(15)       1_555    1_555    1_555    yes
N(1)     C(2)      H(2A)     111.1(6)          1_555    1_555    1_555    yes
N(1)     C(2)      H(2B)     109.2(5)          1_555    1_555    1_555    yes
N(2)     C(2)      H(2A)     111.1(6)          1_555    1_555    1_555    yes
N(2)     C(2)      H(2B)     107.4(5)          1_555    1_555    1_555    yes
H(2A)    C(2)      H(2B)     110.3(8)          1_555    1_555    1_555    yes
N(2)     C(3)      N(3)      112.337(13)       1_555    1_555    1_555    yes
N(2)     C(3)      H(3A)     111.0(6)          1_555    1_555    1_555    yes
N(2)     C(3)      H(3B)     106.0(5)          1_555    1_555    1_555    yes
N(3)     C(3)      H(3A)     110.4(6)          1_555    1_555    1_555    yes
N(3)     C(3)      H(3B)     106.5(5)          1_555    1_555    1_555    yes
H(3A)    C(3)      H(3B)     110.4(8)          1_555    1_555    1_555    yes
 
# Multipole parameters

loop_
_atom_rho_multipole_atom_label
_atom_rho_multipole_coeff_Pv
_atom_rho_multipole_coeff_P00
_atom_rho_multipole_coeff_P11
_atom_rho_multipole_coeff_P1-1
_atom_rho_multipole_coeff_P10
_atom_rho_multipole_coeff_P20
_atom_rho_multipole_coeff_P21
_atom_rho_multipole_coeff_P2-1
_atom_rho_multipole_coeff_P22
_atom_rho_multipole_coeff_P2-2
_atom_rho_multipole_coeff_P30
_atom_rho_multipole_coeff_P31
_atom_rho_multipole_coeff_P3-1
_atom_rho_multipole_coeff_P32
_atom_rho_multipole_coeff_P3-2
_atom_rho_multipole_coeff_P33
_atom_rho_multipole_coeff_P3-3
_atom_rho_multipole_coeff_P40
_atom_rho_multipole_coeff_P41
_atom_rho_multipole_coeff_P4-1
_atom_rho_multipole_coeff_P42
_atom_rho_multipole_coeff_P4-2
_atom_rho_multipole_coeff_P43
_atom_rho_multipole_coeff_P4-3
_atom_rho_multipole_coeff_P44
_atom_rho_multipole_coeff_P4-4
_atom_rho_multipole_kappa
_atom_rho_multipole_kappa_prime0
_atom_rho_multipole_kappa_prime1
_atom_rho_multipole_kappa_prime2
_atom_rho_multipole_kappa_prime3
_atom_rho_multipole_kappa_prime4
_atom_rho_multipole_radial_slater_n0
_atom_rho_multipole_radial_slater_zeta0
_atom_rho_multipole_radial_slater_n1
_atom_rho_multipole_radial_slater_zeta1
_atom_rho_multipole_radial_slater_n2
_atom_rho_multipole_radial_slater_zeta2
_atom_rho_multipole_radial_slater_n3
_atom_rho_multipole_radial_slater_zeta3
_atom_rho_multipole_radial_slater_n4
_atom_rho_multipole_radial_slater_zeta4
O(1) 6.059(14) 0 0.001(5) -0.120(6) -0.020(5)
-0.039(5) 0.013(4) -0.016(5) 0.137(5) 0.011(5)
-0.000(4) -0.000(4) -0.014(4) 0.009(4) 0.004(4) -0.006(4) -0.033(4)
-0.001(6) -0.001(5) -0.007(5) 0.001(5) -0.002(5) -0.008(5) 0.007(5) 0.022(5)
0.004(5)
0.9937(8) 0.999(12) 0.999469 0.999469 0.999469 0.999469
2 4.4974 2 4.4974 2 4.4974 3 4.4974 4 4.4974
O(2) 6.095(14) 0 0.003(5) -0.102(6) 0.000(5)
-0.039(5) -0.013(5) 0.001(5) 0.131(5) 0.008(5)
0.007(5) -0.001(4) -0.021(5) -0.004(4) -0.006(4) -0.011(4) -0.038(5)
0.002(6) 0.000(5) 0.002(5) 0.012(5) -0.002(5) -0.005(6) -0.007(5) 0.020(5)
-0.001(5)
0.9937(8) 0.999(12) 0.999469 0.999469 0.999469 0.999469
2 4.4974 2 4.4974 2 4.4974 3 4.4974 4 4.4974
O(3) 6.060(14) 0 0.006(5) -0.110(6) 0.003(6)
-0.031(6) 0.005(5) 0.002(6) 0.124(5) 0.004(5)
-0.002(5) -0.003(4) -0.017(5) 0.001(4) -0.003(5) -0.013(4) -0.026(4)
0.012(6) 0.005(5) 0.000(6) 0.020(6) 0.001(6) 0.006(6) 0.002(5) 0.006(5)
-0.009(5)
0.9937(8) 0.999(12) 0.999469 0.999469 0.999469 0.999469
2 4.4974 2 4.4974 2 4.4974 3 4.4974 4 4.4974
O(4) 6.072(13) 0 0.006(5) -0.124(5) 0.000(5)
-0.036(5) -0.005(5) 0.003(5) 0.144(5) 0.019(5)
-0.004(5) -0.004(4) -0.013(5) 0.002(4) -0.003(4) -0.010(4) -0.027(4)
0.009(6) -0.004(5) -0.002(5) -0.004(5) -0.009(5) 0.004(5) -0.004(5) 0.003(5)
-0.003(5)
0.9937(8) 0.999(12) 0.999469 0.999469 0.999469 0.999469
2 4.4974 2 4.4974 2 4.4974 3 4.4974 4 4.4974
O(5) 6.047(13) 0 -0.001(5) -0.138(5) 0.004(5)
-0.032(5) 0.005(5) 0.010(5) 0.159(5) 0.015(5)
0.001(4) -0.003(4) -0.014(4) -0.009(4) 0.000(4) -0.008(4) -0.032(4)
0.012(6) -0.001(5) 0.005(5) -0.004(5) -0.008(5) 0.004(5) -0.005(5) 0.004(5)
-0.007(5)
0.9937(8) 0.999(12) 0.999469 0.999469 0.999469 0.999469
2 4.4974 2 4.4974 2 4.4974 3 4.4974 4 4.4974
O(6) 6.086(13) 0 0.001(5) -0.103(6) -0.011(5)
-0.024(5) 0.011(5) -0.004(5) 0.121(5) -0.009(5)
0.006(5) -0.002(4) -0.023(5) 0.010(4) -0.001(4) -0.006(4) -0.031(5)
0.007(6) -0.003(5) 0.005(5) 0.017(5) 0.005(5) -0.001(5) 0.008(5) 0.011(5)
-0.011(5)
0.9937(8) 0.999(12) 0.999469 0.999469 0.999469 0.999469
2 4.4974 2 4.4974 2 4.4974 3 4.4974 4 4.4974
N(1) 4.92(2) 0 -0.056(5) -0.006(6) 0.042(5)
0.067(5) -0.002(4) -0.023(5) -0.052(5) 0.010(5)
0.027(5) -0.007(4) -0.022(5) 0.031(5) -0.035(5) 0.127(5) -0.000(5)
0.013(6) 0.001(5) -0.007(6) -0.010(6) 0.004(6) -0.021(6) -0.003(6) -0.003(6)
0.009(6)
0.9984(13) 1.065(14) 1.065268 1.065268 1.065268 1.065268
2 3.81056 2 3.81056 2 3.81056 3 3.81056 4 3.81056
N(2) 4.92(2) 0 -0.068(5) -0.012(5) -0.069(5)
0.092(5) 0.006(4) 0.044(5) -0.073(5) -0.011(5)
-0.033(5) -0.026(4) -0.041(5) -0.030(5) 0.037(5) 0.117(5) -0.013(5)
0.016(6) -0.003(6) -0.005(6) -0.009(6) 0.023(6) 0.015(6) -0.002(6) 0.004(6)
0.014(6)
0.9984(13) 1.065(14) 1.065268 1.065268 1.065268 1.065268
2 3.81056 2 3.81056 2 3.81056 3 3.81056 4 3.81056
N(3) 4.925(19) 0 -0.063(5) -0.033(5) -0.056(5)
0.087(5) -0.005(5) 0.037(4) -0.066(5) 0.024(5)
-0.020(5) -0.027(5) -0.048(5) -0.021(5) 0.046(5) 0.117(5) -0.015(5)
0.014(6) 0.005(6) -0.002(6) -0.019(6) 0.007(6) 0.028(6) -0.005(6) 0.002(6)
0.012(6)
0.9984(13) 1.065(14) 1.065268 1.065268 1.065268 1.065268
2 3.81056 2 3.81056 2 3.81056 3 3.81056 4 3.81056
N(4) 5.07(2) 0 -0.038(8) 0.023(9) 0.004(6)
-0.262(8) -0.028(6) 0.009(6) -0.106(7) -0.006(7)
-0.007(8) 0.007(7) -0.024(8) -0.029(7) -0.001(8) 0.429(12) 0.002(9)
0.033(9) 0.006(8) -0.001(9) 0.007(9) 0.011(9) 0.023(10) 0.012(10) 0.045(12)
0.008(12)
0.9809(16) 0.794(6) 0.793758 0.793758 0.793758 0.793758
2 3.81056 2 3.81056 2 3.81056 3 3.81056 4 3.81056
N(5) 5.12(2) 0 -0.056(7) -0.006(8) 0.008(6)
-0.251(8) 0.028(6) 0.015(6) -0.119(7) -0.016(7)
0.008(8) 0.012(7) 0.002(8) 0.041(7) -0.029(7) 0.450(11) -0.006(8)
0.052(9) -0.011(8) -0.001(9) 0.004(9) 0.006(9) 0.000(10) -0.003(10) 0.065(11)
-0.002(11)
0.9809(16) 0.794(6) 0.793758 0.793758 0.793758 0.793758
2 3.81056 2 3.81056 2 3.81056 3 3.81056 4 3.81056
N(6) 5.10(2) 0 -0.045(8) 0.026(8) -0.005(6)
-0.241(7) 0.037(6) 0.023(6) -0.119(7) 0.003(7)
0.021(8) 0.005(7) -0.013(8) 0.049(7) -0.026(7) 0.446(12) -0.012(8)
0.046(9) -0.013(8) -0.017(9) 0.002(9) -0.005(9) -0.024(10) -0.003(10) 0.054(11)
0.016(11)
0.9809(16) 0.794(6) 0.793758 0.793758 0.793758 0.793758
2 3.81056 2 3.81056 2 3.81056 3 3.81056 4 3.81056
C(1) 4.27(5) 0 0.038(15) 0.025(8) 0.138(12)
-0.021(7) 0.031(10) 0.010(7) 0.150(9) -0.012(8)
-0.006(9) -0.023(11) 0.074(8) 0.468(14) -0.064(10) 0.041(9) 0.060(9)
-0.131(12) -0.021(12) -0.036(10) -0.019(12) -0.015(11) -0.001(11) 0.006(12)
0.117(11) -0.034(11)
0.978(3) 0.897(7) 0.897131 0.897131 0.897131 0.897131
2 3.1303 2 3.1303 2 3.1303 3 3.1303 4 3.1303
C(2) 4.21(5) 0 0.002(16) -0.008(8) 0.111(13)
0.000(8) 0.024(12) -0.004(7) 0.130(10) 0.005(8)
-0.003(9) 0.041(12) -0.068(8) 0.458(15) 0.012(11) -0.031(9) -0.055(9)
-0.121(12) 0.023(13) 0.047(10) -0.028(12) 0.016(11) 0.010(11) -0.013(12)
0.115(11) 0.004(11)
0.978(3) 0.897(7) 0.897131 0.897131 0.897131 0.897131
2 3.1303 2 3.1303 2 3.1303 3 3.1303 4 3.1303
C(3) 4.22(5) 0 0.021(13) -0.007(9) 0.130(11)
-0.013(7) -0.013(9) -0.020(7) 0.137(9) -0.044(8)
-0.014(9) -0.093(11) -0.107(8) 0.419(14) -0.097(10) 0.028(9) -0.103(9)
-0.095(12) -0.018(12) 0.060(10) 0.013(12) 0.007(11) -0.017(11) -0.022(12)
0.093(11) -0.058(10)
0.978(3) 0.897(7) 0.897131 0.897131 0.897131 0.897131
2 3.1303 2 3.1303 2 3.1303 3 3.1303 4 3.1303
H(1A) 0.75(3) 0 0.006(16) -0.003(16) 0.101(19)
0.028(14) 0 0 0 0
0 0 0 0 0 0 0
0 0 0 0 0 0 0 0 0
1.197156 1.2 1.2 1.2 1.2 1.2
0 1.9154 1 1.9154 2 1.9154 3 1.9154 4 1.9154
H(1B) 0.84(3) 0 0.005(15) 0.001(17) 0.126(19)
0.042(15) 0 0 0 0
0 0 0 0 0 0 0
0 0 0 0 0 0 0 0 0
1.197156 1.2 1.2 1.2 1.2 1.2
0 1.9154 1 1.9154 2 1.9154 3 1.9154 4 1.9154
H(2A) 0.82(3) 0 0.008(16) -0.027(18) 0.12(2)
0.026(15) 0 0 0 0
0 0 0 0 0 0 0
0 0 0 0 0 0 0 0 0
1.197156 1.2 1.2 1.2 1.2 1.2
0 1.9154 1 1.9154 2 1.9154 3 1.9154 4 1.9154
H(2B) 0.86(3) 0 -0.009(16) 0.001(17) 0.135(19)
0.054(15) 0 0 0 0
0 0 0 0 0 0 0
0 0 0 0 0 0 0 0 0
1.197156 1.2 1.2 1.2 1.2 1.2
0 1.9154 1 1.9154 2 1.9154 3 1.9154 4 1.9154
H(3A) 0.79(3) 0 -0.019(16) -0.024(17) 0.09(2)
0.015(15) 0 0 0 0
0 0 0 0 0 0 0
0 0 0 0 0 0 0 0 0
1.197156 1.2 1.2 1.2 1.2 1.2
0 1.9154 1 1.9154 2 1.9154 3 1.9154 4 1.9154
H(3B) 0.81(2) 0 -0.012(15) 0.009(16) 0.121(17)
0.059(14) 0 0 0 0
0 0 0 0 0 0 0
0 0 0 0 0 0 0 0 0
1.197156 1.2 1.2 1.2 1.2 1.2
0 1.9154 1 1.9154 2 1.9154 3 1.9154 4 1.9154
 
loop_
_atom_local_axes_atom_label
_atom_local_axes_atom0
_atom_local_axes_ax1
_atom_local_axes_atom1
_atom_local_axes_atom2
_atom_local_axes_ax2
O(1)       N(4)        Y           O(1)        O(2)        X
O(2)       N(4)        Y           O(2)        O(1)        X
O(3)       N(5)        Y           O(3)        O(4)        X
O(4)       N(5)        Y           O(4)        O(3)        X
O(5)       N(6)        Y           O(5)        O(6)        X
O(6)       N(6)        Y           O(6)        O(5)        X
N(1)       N(4)        X           N(1)        C(2)        Y
N(2)       N(5)        X           N(2)        C(3)        Y
N(3)       N(6)        X           N(3)        C(1)        Y
N(4)       N(1)        X           N(4)        O(1)        Y
N(5)       N(2)        X           N(5)        O(3)        Y
N(6)       N(3)        X           N(6)        O(5)        Y
C(1)       DUM0        Z           C(1)        N(3)        Y
C(2)       DUM1        Z           C(2)        N(1)        Y
C(3)       DUM2        Z           C(3)        N(2)        Y
H(1A)      C(1)        Z           H(1A)       H(1B)       Y
H(1B)      C(1)        Z           H(1B)       H(1A)       Y
H(2A)      C(2)        Z           H(2A)       H(2B)       Y
H(2B)      C(2)        Z           H(2B)       H(2A)       Y
H(3A)      C(3)        Z           H(3A)       H(3B)       Y
H(3B)      C(3)        Z           H(3B)       H(3A)       Y

#-----------------------------------------
data_RDX120KAnharmonic
#-----------------------------------------
_exptl_crystal_description    'prism '
_exptl_crystal_colour          colorless
_exptl_crystal_size_max        0.29
_exptl_crystal_size_mid        0.29
_exptl_crystal_size_min        0.17
_chemical_formula_sum          'C3 H6 N6 O6 '
_chemical_formula_moiety       'C3 H6 N6 O6 '
_chemical_formula_weight       222.14
_exptl_crystal_F_000           912.0
_symmetry_cell_setting         Orthorhombic
_symmetry_space_group_name_H-M Pbca
_symmetry_space_group_name_Hall '-P 2ac 2ab' 
_cell_length_a                11.4425(3)
_cell_length_b                10.6106(3)
_cell_length_c                13.1558(4)
_cell_angle_alpha              90.000
_cell_angle_beta               90.000
_cell_angle_gamma              90.000
_cell_volume                   1597.27(8)
_cell_formula_units_Z          8
_exptl_crystal_density_diffrn  1.847
loop_
_symmetry_equiv_pos_site_id
_symmetry_equiv_pos_as_xyz
1        +X,+Y,+Z
2        1/2-X,-Y,1/2+Z
3        -X,1/2+Y,1/2-Z
4        1/2+X,1/2-Y,-Z
5        -X,-Y,-Z
6        1/2+X,+Y,1/2-Z
7        +X,1/2-Y,1/2+Z
8        1/2-X,1/2+Y,+Z
_cell_measurement_reflns_used    173199
_cell_measurement_theta_min      3.043
_cell_measurement_theta_max      66.78
_cell_measurement_temperature    120.0(2)
_diffrn_radiation_type           'Mo K\a'
_diffrn_radiation_wavelength     0.71073
_diffrn_ambient_temperature      120.0(2)
_exptl_absorpt_coefficient_mu    0.176
_exptl_absorpt_correction_T_min ?
_exptl_absorpt_correction_T_max ?
_diffrn_measurement_device       'Rigaku R-axis Rapid'
_diffrn_measurement_method       w
_exptl_absorpt_correction_type   none
_diffrn_reflns_number            173199
_reflns_number_total             12304
_reflns_number_gt                7986
_reflns_threshold_expression 'I>3\s, non-overlapped & non-partial reflections'
_diffrn_reflns_av_R_equivalents  0.0163
_diffrn_reflns_theta_max         66.78
_diffrn_reflns_theta_full        28.28
_diffrn_measured_fraction_theta_full 1.0
_diffrn_measured_fraction_theta_max  0.85
_diffrn_reflns_limit_h_min       -29
_diffrn_reflns_limit_h_max        29
_diffrn_reflns_limit_k_min       -21
_diffrn_reflns_limit_k_max        22
_diffrn_reflns_limit_l_min       -32
_diffrn_reflns_limit_l_max        33
_diffrn_standards_number          ?
_diffrn_standards_interval_time   ?
_diffrn_standards_decay_%         ?
_refine_ls_structure_factor_coef  Fsqd 
_refine_ls_R_factor_gt            0.0166
_refine_ls_wR_factor_ref          0.0132
_refine_ls_hydrogen_treatment     refall
_refine_ls_number_reflns          7986
_refine_ls_number_parameters      754
_refine_ls_goodness_of_fit_ref    0.85
_refine_ls_weighting_scheme       calc                        
_refine_ls_weighting_details
;    calc w2 = q/[s^2^(Fo^2^) + (0.008 P)^2^ + 0.012 P + 0.00 + 0.00 sin(th)]
     where P = (1.0000 Fo^2^ + 0.0000 Fc^2^)
           q = 1.0
;
_refine_ls_shift/su_max           0.0000
_refine_diff_density_max           0.14
_refine_diff_density_min          -0.15
_refine_ls_extinction_method      none
_refine_ls_extinction_coef        0.0                                   
_atom_type_scat_source          'Volkov et al, (2006)'
_computing_data_collection      'CrystalClear,(2005)'
_computing_cell_refinement      'Otwinowski & Minor (1997)'
_computing_data_reduction       'Zhurov et al,(2005)'
_computing_structure_solution   'Sheldrick (1997)'
_computing_structure_refinement 'Volkov et al, (2006)'
_computing_molecular_graphics   'Volkov et al, (2006)'
_computing_publication_material 'Volkov et al, (2006)'

# Atomic coordinates

loop_
_atom_site_label
_atom_site_fract_x
_atom_site_fract_y
_atom_site_fract_z
_atom_site_occupancy
_atom_site_symmetry_multiplicity
_atom_site_U_iso_or_equiv
O(1)    0.56779(6)     0.43448(10)    0.26715(6)     1    8    0.016
O(2)    0.59319(7)     0.23607(11)    0.22893(8)     1    8    0.020
O(3)    0.46496(8)     0.13401(11)   -0.02697(8)     1    8    0.022
O(4)    0.35083(8)     0.25419(11)   -0.11663(6)     1    8    0.020
O(5)    0.31818(9)     0.53209(11)   -0.07236(6)     1    8    0.020
O(6)    0.43264(8)     0.60385(10)    0.04639(9)     1    8    0.021
N(1)    0.43501(5)     0.33559(7)     0.17474(5)     1    8    0.012
N(2)    0.31848(5)     0.23515(7)     0.05082(4)     1    8    0.011
N(3)    0.29687(5)     0.45953(7)     0.08642(5)     1    8    0.011
N(4)    0.53689(4)     0.33517(6)     0.22735(3)     1    8    0.012
N(5)    0.38436(4)     0.20824(5)    -0.03662(4)     1    8    0.013
N(6)    0.35495(4)     0.53481(5)     0.01475(4)     1    8    0.014
C(1)    0.35606(5)     0.44367(6)     0.18357(4)     1    8    0.013
C(2)    0.37830(5)     0.21644(6)     0.14727(4)     1    8    0.012
C(3)    0.24065(4)     0.34488(5)     0.04730(4)     1    8    0.011
H(1A)   0.4039(11)     0.5258(13)     0.2042(9)      1    8    0.033
H(1B)   0.2898(11)     0.4224(12)     0.2385(9)      1    8    0.024
H(2A)   0.4384(12)     0.1427(12)     0.1432(9)      1    8    0.031
H(2B)   0.3110(11)     0.1960(12)     0.2033(9)      1    8    0.026
H(3A)   0.2093(10)     0.3601(11)    -0.0291(10)     1    8    0.023
H(3B)   0.1680(10)     0.3255(10)     0.0986(9)      1    8    0.022
 
# Dummy atom coordinates

loop_
_atom_dummy_label
_atom_dummy_fract_x
_atom_dummy_fract_y
_atom_dummy_fract_z
DUM0    0.3479         0.4709         0.2227
DUM1    0.3809         0.1675         0.1758
DUM2    0.1939         0.3351         0.0385
 
# Anisotropic displacement parameters

loop_
_atom_site_aniso_label
_atom_site_aniso_U_11
_atom_site_aniso_U_22
_atom_site_aniso_U_33
_atom_site_aniso_U_12
_atom_site_aniso_U_13
_atom_site_aniso_U_23
O(1) 0.01450(6) 0.02064(9) 0.01432(6) -0.00434(6) -0.00423(5) -0.00132(7)
O(2) 0.01466(7) 0.01982(10) 0.02444(10) 0.00307(7) -0.00603(6) 0.00401(8)
O(3) 0.01946(8) 0.02176(11) 0.02420(11) 0.00557(8) 0.00734(8) -0.00299(9)
O(4) 0.02442(9) 0.02653(11) 0.00917(6) -0.00131(8) 0.00307(6) -0.00128(7)
O(5) 0.02521(10) 0.02060(11) 0.01483(7) 0.00336(8) 0.00455(6) 0.00574(7)
O(6) 0.01650(7) 0.01493(10) 0.03068(12) -0.00382(7) 0.00626(8) 0.00006(9)
N(1) 0.01123(5) 0.01137(7) 0.01317(6) -0.00015(5) -0.00399(4) -0.00043(5)
N(2) 0.01044(5) 0.01246(7) 0.00891(5) -0.00099(4) 0.00025(4) -0.00121(5)
N(3) 0.00990(5) 0.01205(7) 0.01184(6) 0.00020(5) -0.00063(4) 0.00120(5)
N(4) 0.01028(4) 0.01586(7) 0.01042(5) -0.00123(4) -0.00226(3) 0.00216(5)
N(5) 0.01334(5) 0.01475(7) 0.01152(5) -0.00196(5) 0.00337(4) -0.00278(5)
N(6) 0.01249(5) 0.01175(7) 0.01685(6) 0.00188(5) 0.00426(4) 0.00266(5)
C(1) 0.01301(6) 0.01258(8) 0.01230(6) 0.00061(5) -0.00197(4) -0.00224(5)
C(2) 0.01463(6) 0.01083(7) 0.01094(6) -0.00141(5) -0.00177(4) 0.00122(5)
C(3) 0.00824(4) 0.01487(7) 0.01087(5) -0.00064(4) -0.00047(4) -0.00028(5)
H(1A) 0.035(5) 0.029(6) 0.036(4) 0.005(4) -0.006(3) 0.001(3)
H(1B) 0.021(4) 0.034(4) 0.019(3) 0.006(3) 0.003(3) -0.002(3)
H(2A) 0.031(5) 0.030(5) 0.033(4) -0.001(3) -0.009(3) -0.007(3)
H(2B) 0.026(4) 0.031(4) 0.021(3) -0.015(3) 0.007(3) -0.000(3)
H(3A) 0.022(3) 0.029(4) 0.017(4) -0.001(2) -0.003(3) 0.003(3)
H(3B) 0.017(3) 0.027(3) 0.023(4) -0.004(2) 0.005(3) 0.002(2)
 
# Anharmonic displacement parameters
 
_atom_site_anharm_details
;
The atomic anharmonic pdf is approximated by a Gram-Charlier expansion
about the harmonic pdf, according to the expression :
 
      P(u) = (1 + Cijk*Hijk/3! + Dijkl*Hijkl/4!)*P(0)
 
The coefficients Cijk and Dijkl are refined in the least squares procedure.
The reported coefficients Cijk are multiplied by 1000 and Dijkl by 10000.
;
 
loop_
    _atom_site_anharm_GC_C_label
    _atom_site_anharm_GC_C_111
    _atom_site_anharm_GC_C_222
    _atom_site_anharm_GC_C_333
    _atom_site_anharm_GC_C_112
    _atom_site_anharm_GC_C_122
    _atom_site_anharm_GC_C_113
    _atom_site_anharm_GC_C_133
    _atom_site_anharm_GC_C_223
    _atom_site_anharm_GC_C_233
    _atom_site_anharm_GC_C_123
O(1) -0.00001(2) -0.00021(6) 0.000034(17) 0.000024(14) 0.000068(19) 0.000023(9)
-0.000023(8) -0.000066(17) 0.000059(12) 0.000040(8)
O(2) -0.00000(2) -0.00024(7) -0.00021(3) -0.000032(15) 0.00005(2) 0.000040(12)
-0.000064(12) -0.00020(2) -0.000144(17) -0.000036(10)
O(3) -0.00019(3) -0.00001(7) -0.00010(3) -0.000153(19) -0.00011(2) -0.000069(16)
-0.000041(15) -0.00005(2) 0.000137(18) 0.000082(11)
O(4) -0.00037(4) 0.00010(8) -0.000045(15) 0.00010(2) -0.00007(3) -0.000024(11)
0.000004(9) -0.000033(18) 0.000003(13) 0.000030(10)
O(5) -0.00044(4) -0.00012(7) -0.000116(19) -0.00029(2) -0.00001(2) -0.000113(14)
-0.000010(12) -0.000063(19) -0.000032(14) -0.000009(11)
O(6) 0.00004(3) 0.00005(6) -0.00032(4) -0.000050(16) 0.000058(19) -0.000019(15)
-0.000149(15) -0.00001(2) -0.000041(18) -0.000073(11)
N(1) 0.000043(18) 0.00000(5) 0.000039(14) -0.000003(11) 0.000044(15) 0.000029(8)
-0.000014(7) -0.000009(13) -0.000013(10) 0.000006(7)
N(2) 0.000003(18) -0.00005(5) -0.000020(12) 0.000003(10) 0.000019(13)
-0.000013(7) -0.000008(6) -0.000014(12) -0.000003(8) -0.000001(6)
N(3) 0.000001(18) 0.00014(5) -0.000002(14) 0.000012(10) -0.000003(14)
-0.000009(7) -0.000008(7) 0.000041(13) 0.000006(10) 0.000019(6)
N(4) -0.000018(14) -0.00009(4) -0.000002(10) -0.000001(10) 0.000031(13)
-0.000004(6) 0.000000(6) -0.000072(12) -0.000028(8) 0.000009(6)
N(5) -0.000082(18) 0.00003(4) -0.000006(13) 0.000024(11) -0.000037(14)
-0.000025(7) -0.000015(7) -0.000055(12) 0.000038(9) 0.000032(6)
N(6) -0.000053(17) -0.00003(4) -0.000097(16) -0.000035(10) -0.000014(13)
-0.000040(8) -0.000049(8) -0.000024(13) -0.000032(10) -0.000027(7)
C(1) 0.00007(2) 0.00007(4) -0.000044(13) 0.000043(12) -0.000010(15) -0.000023(8)
0.000035(8) 0.000001(13) 0.000031(10) -0.000006(7)
C(2) 0.00009(2) -0.00008(4) -0.000018(12) 0.000011(12) -0.000019(15)
-0.000034(8) 0.000021(7) -0.000020(12) -0.000017(9) -0.000022(7)
C(3) -0.000019(14) 0.00000(4) -0.000003(13) 0.000002(10) -0.000033(13)
-0.000008(7) -0.000008(6) 0.000014(13) 0.000004(9) 0.000002(6)

loop_
_geom_bond_atom_site_label_1
_geom_bond_atom_site_label_2
_geom_bond_distance
_geom_bond_site_symmetry_1
_geom_bond_site_symmetry_2
_geom_bond_publ_flag
O(1)     N(4)      1.2286(10)          1_555     1_555     yes
O(2)     N(4)      1.2333(11)          1_555     1_555     yes
O(3)     N(5)      1.2194(11)          1_555     1_555     yes
O(4)     N(5)      1.2218(10)          1_555     1_555     yes
O(5)     N(6)      1.2212(10)          1_555     1_555     yes
O(6)     N(6)      1.2248(11)          1_555     1_555     yes
N(1)     N(4)      1.3558(7)           1_555     1_555     yes
N(1)     C(1)      1.4645(9)           1_555     1_555     yes
N(1)     C(2)      1.4663(9)           1_555     1_555     yes
N(2)     N(5)      1.4046(7)           1_555     1_555     yes
N(2)     C(2)      1.4553(7)           1_555     1_555     yes
N(2)     C(3)      1.4666(8)           1_555     1_555     yes
N(3)     N(6)      1.4031(8)           1_555     1_555     yes
N(3)     C(1)      1.4562(7)           1_555     1_555     yes
N(3)     C(3)      1.4692(8)           1_555     1_555     yes
C(1)     H(1A)     1.065(16)           1_555     1_555     yes
C(1)     H(1B)     1.072(13)           1_555     1_555     yes
C(2)     H(2A)     1.043(15)           1_555     1_555     yes
C(2)     H(2B)     1.088(13)           1_555     1_555     yes
C(3)     H(3A)     1.080(13)           1_555     1_555     yes
C(3)     H(3B)     1.090(12)           1_555     1_555     yes
 
loop_
_geom_angle_atom_site_label_1
_geom_angle_atom_site_label_2
_geom_angle_atom_site_label_3
_geom_angle
_geom_angle_site_symmetry_1
_geom_angle_site_symmetry_2
_geom_angle_site_symmetry_3
_geom_angle_publ_flag
N(4)     N(1)      C(1)      119.50(6)         1_555    1_555    1_555    yes
N(4)     N(1)      C(2)      120.23(6)         1_555    1_555    1_555    yes
C(1)     N(1)      C(2)      114.95(5)         1_555    1_555    1_555    yes
N(5)     N(2)      C(2)      115.71(5)         1_555    1_555    1_555    yes
N(5)     N(2)      C(3)      117.48(6)         1_555    1_555    1_555    yes
C(2)     N(2)      C(3)      114.93(5)         1_555    1_555    1_555    yes
N(6)     N(3)      C(1)      115.80(6)         1_555    1_555    1_555    yes
N(6)     N(3)      C(3)      116.32(6)         1_555    1_555    1_555    yes
C(1)     N(3)      C(3)      114.54(6)         1_555    1_555    1_555    yes
O(1)     N(4)      O(2)      125.01(7)         1_555    1_555    1_555    yes
O(1)     N(4)      N(1)      117.53(7)         1_555    1_555    1_555    yes
O(2)     N(4)      N(1)      117.42(7)         1_555    1_555    1_555    yes
O(3)     N(5)      O(4)      125.79(8)         1_555    1_555    1_555    yes
O(3)     N(5)      N(2)      116.87(8)         1_555    1_555    1_555    yes
O(4)     N(5)      N(2)      117.12(7)         1_555    1_555    1_555    yes
O(5)     N(6)      O(6)      125.67(9)         1_555    1_555    1_555    yes
O(5)     N(6)      N(3)      117.00(8)         1_555    1_555    1_555    yes
O(6)     N(6)      N(3)      117.12(8)         1_555    1_555    1_555    yes
N(1)     C(1)      N(3)      107.93(5)         1_555    1_555    1_555    yes
N(1)     C(1)      H(1A)     110.1(6)          1_555    1_555    1_555    yes
N(1)     C(1)      H(1B)     109.0(6)          1_555    1_555    1_555    yes
N(3)     C(1)      H(1A)     111.6(6)          1_555    1_555    1_555    yes
N(3)     C(1)      H(1B)     106.7(6)          1_555    1_555    1_555    yes
H(1A)    C(1)      H(1B)     111.4(9)          1_555    1_555    1_555    yes
N(1)     C(2)      N(2)      107.78(5)         1_555    1_555    1_555    yes
N(1)     C(2)      H(2A)     111.6(6)          1_555    1_555    1_555    yes
N(1)     C(2)      H(2B)     108.6(6)          1_555    1_555    1_555    yes
N(2)     C(2)      H(2A)     111.6(6)          1_555    1_555    1_555    yes
N(2)     C(2)      H(2B)     106.5(6)          1_555    1_555    1_555    yes
H(2A)    C(2)      H(2B)     110.6(10)         1_555    1_555    1_555    yes
N(2)     C(3)      N(3)      112.36(4)         1_555    1_555    1_555    yes
N(2)     C(3)      H(3A)     110.5(6)          1_555    1_555    1_555    yes
N(2)     C(3)      H(3B)     107.1(6)          1_555    1_555    1_555    yes
N(3)     C(3)      H(3A)     110.3(6)          1_555    1_555    1_555    yes
N(3)     C(3)      H(3B)     105.9(6)          1_555    1_555    1_555    yes
H(3A)    C(3)      H(3B)     110.6(8)          1_555    1_555    1_555    yes

# Multipole parameters

loop_
_atom_rho_multipole_atom_label
_atom_rho_multipole_coeff_Pv
_atom_rho_multipole_coeff_P00
_atom_rho_multipole_coeff_P11
_atom_rho_multipole_coeff_P1-1
_atom_rho_multipole_coeff_P10
_atom_rho_multipole_coeff_P20
_atom_rho_multipole_coeff_P21
_atom_rho_multipole_coeff_P2-1
_atom_rho_multipole_coeff_P22
_atom_rho_multipole_coeff_P2-2
_atom_rho_multipole_coeff_P30
_atom_rho_multipole_coeff_P31
_atom_rho_multipole_coeff_P3-1
_atom_rho_multipole_coeff_P32
_atom_rho_multipole_coeff_P3-2
_atom_rho_multipole_coeff_P33
_atom_rho_multipole_coeff_P3-3
_atom_rho_multipole_coeff_P40
_atom_rho_multipole_coeff_P41
_atom_rho_multipole_coeff_P4-1
_atom_rho_multipole_coeff_P42
_atom_rho_multipole_coeff_P4-2
_atom_rho_multipole_coeff_P43
_atom_rho_multipole_coeff_P4-3
_atom_rho_multipole_coeff_P44
_atom_rho_multipole_coeff_P4-4
_atom_rho_multipole_kappa
_atom_rho_multipole_kappa_prime0
_atom_rho_multipole_kappa_prime1
_atom_rho_multipole_kappa_prime2
_atom_rho_multipole_kappa_prime3
_atom_rho_multipole_kappa_prime4
_atom_rho_multipole_radial_slater_n0
_atom_rho_multipole_radial_slater_zeta0
_atom_rho_multipole_radial_slater_n1
_atom_rho_multipole_radial_slater_zeta1
_atom_rho_multipole_radial_slater_n2
_atom_rho_multipole_radial_slater_zeta2
_atom_rho_multipole_radial_slater_n3
_atom_rho_multipole_radial_slater_zeta3
_atom_rho_multipole_radial_slater_n4
_atom_rho_multipole_radial_slater_zeta4
O(1) 6.09(2) 0 0.004(13) -0.081(16) 0.013(12)
-0.025(7) 0.002(6) 0.016(7) 0.150(8) 0.006(7)
-0.009(7) -0.001(6) -0.020(7) -0.012(7) -0.004(7) -0.004(7) -0.035(7)
-0.009(7) -0.001(6) -0.013(6) 0.007(6) 0.008(6) -0.003(7) -0.007(6) 0.015(7)
-0.010(6)
0.9899(11) 0.923(16) 0.922552 0.922552 0.922552 0.922552
2 4.4974 2 4.4974 2 4.4974 3 4.4974 4 4.4974
O(2) 6.12(2) 0 0.022(14) -0.075(17) 0.022(14)
-0.021(8) 0.013(7) 0.005(8) 0.153(8) -0.007(7)
-0.007(8) -0.001(7) -0.032(8) 0.002(7) 0.005(8) -0.003(7) -0.034(8)
0.005(7) -0.001(7) -0.010(7) 0.005(7) -0.011(7) 0.003(7) 0.010(7) 0.005(7)
0.004(6)
0.9899(11) 0.923(16) 0.922552 0.922552 0.922552 0.922552
2 4.4974 2 4.4974 2 4.4974 3 4.4974 4 4.4974
O(3) 6.09(2) 0 -0.007(16) -0.073(17) -0.014(17)
-0.080(8) -0.008(7) -0.038(9) 0.155(9) 0.019(8)
0.015(8) 0.005(7) -0.033(8) 0.016(8) -0.003(8) -0.020(7) -0.030(8)
0.022(8) 0.002(7) -0.006(7) 0.013(7) -0.010(7) -0.001(7) 0.010(7) 0.003(7)
-0.007(7)
0.9899(11) 0.923(16) 0.922552 0.922552 0.922552 0.922552
2 4.4974 2 4.4974 2 4.4974 3 4.4974 4 4.4974
O(4) 6.11(2) 0 -0.008(14) -0.088(16) -0.029(15)
-0.061(8) -0.026(7) -0.029(8) 0.140(8) -0.007(7)
-0.002(8) -0.003(7) -0.025(8) 0.004(7) -0.015(8) -0.006(7) -0.029(8)
0.011(7) -0.008(7) 0.001(7) 0.010(7) -0.008(7) 0.004(7) -0.008(7) 0.014(7)
-0.007(7)
0.9899(11) 0.923(16) 0.922552 0.922552 0.922552 0.922552
2 4.4974 2 4.4974 2 4.4974 3 4.4974 4 4.4974
O(5) 6.08(2) 0 0.004(16) -0.073(16) -0.015(14)
-0.050(7) 0.034(7) 0.005(8) 0.134(9) 0.016(8)
0.002(7) -0.005(7) -0.030(8) 0.002(7) -0.002(8) -0.013(8) -0.032(8)
0.008(7) 0.004(6) 0.005(7) 0.008(7) -0.007(7) 0.006(7) 0.006(7) 0.007(7)
-0.006(7)
0.9899(11) 0.923(16) 0.922552 0.922552 0.922552 0.922552
2 4.4974 2 4.4974 2 4.4974 3 4.4974 4 4.4974
O(6) 6.08(2) 0 -0.001(17) -0.087(17) -0.001(14)
-0.054(7) -0.007(7) 0.017(8) 0.148(9) 0.031(9)
-0.002(7) -0.004(7) -0.023(8) -0.001(7) 0.004(8) -0.015(8) -0.020(9)
0.007(7) 0.006(7) -0.005(7) 0.013(7) 0.003(7) 0.008(7) 0.000(7) 0.002(8)
-0.013(7)
0.9899(11) 0.923(16) 0.922552 0.922552 0.922552 0.922552
2 4.4974 2 4.4974 2 4.4974 3 4.4974 4 4.4974
N(1) 4.96(2) 0 -0.096(10) -0.004(12) 0.040(10)
0.086(6) -0.007(5) -0.009(6) -0.030(6) -0.005(6)
0.027(6) -0.001(6) -0.029(6) 0.022(7) -0.039(7) 0.146(7) -0.006(7)
-0.001(7) 0.000(6) -0.003(6) -0.017(7) 0.012(7) -0.015(6) 0.012(7) -0.016(7)
0.007(7)
0.9968(16) 1.043(18) 1.042658 1.042658 1.042658 1.042658
2 3.81056 2 3.81056 2 3.81056 3 3.81056 4 3.81056
N(2) 4.94(2) 0 -0.083(10) -0.006(11) -0.060(9)
0.089(5) 0.005(5) 0.017(5) -0.060(6) 0.001(6)
-0.026(6) -0.030(6) -0.050(6) -0.020(6) 0.046(6) 0.132(7) -0.004(7)
0.020(7) -0.005(6) -0.008(6) -0.005(6) 0.018(6) 0.021(6) 0.001(7) 0.008(7)
0.011(7)
0.9968(16) 1.043(18) 1.042658 1.042658 1.042658 1.042658
2 3.81056 2 3.81056 2 3.81056 3 3.81056 4 3.81056
N(3) 4.94(2) 0 -0.075(11) -0.038(10) -0.032(10)
0.074(6) 0.023(5) 0.035(5) -0.080(6) -0.009(6)
-0.024(6) -0.031(6) -0.050(6) -0.022(7) 0.048(6) 0.133(7) -0.015(7)
0.002(7) 0.004(6) -0.006(6) -0.022(7) 0.006(6) 0.038(7) 0.010(7) 0.010(7)
0.007(7)
0.9968(16) 1.043(18) 1.042658 1.042658 1.042658 1.042658
2 3.81056 2 3.81056 2 3.81056 3 3.81056 4 3.81056
N(4) 5.09(3) 0 -0.039(16) 0.010(19) -0.005(10)
-0.269(10) 0.002(7) -0.038(9) -0.079(10) -0.008(11)
-0.011(10) 0.004(9) -0.011(11) -0.008(10) 0.022(11) 0.470(16) 0.001(13)
0.032(11) 0.009(10) 0.029(11) -0.003(11) 0.029(12) -0.012(13) 0.030(13)
0.055(17) -0.001(17)
0.981(2) 0.757(7) 0.757082 0.757082 0.757082 0.757082
2 3.81056 2 3.81056 2 3.81056 3 3.81056 4 3.81056
N(5) 5.08(3) 0 -0.058(16) -0.008(19) 0.007(11)
-0.269(10) 0.018(8) 0.055(9) -0.098(11) 0.008(11)
0.003(11) -0.016(10) -0.004(12) 0.033(11) -0.059(11) 0.467(16) -0.012(13)
0.026(11) -0.010(10) -0.006(11) -0.007(11) 0.000(12) 0.005(14) 0.005(13)
0.060(18) 0.014(17)
0.981(2) 0.757(7) 0.757082 0.757082 0.757082 0.757082
2 3.81056 2 3.81056 2 3.81056 3 3.81056 4 3.81056
N(6) 5.09(3) 0 -0.045(17) 0.00(2) 0.011(11)
-0.282(10) 0.008(8) 0.013(9) -0.131(11) -0.017(12)
0.008(11) -0.012(10) 0.003(12) 0.031(11) -0.018(11) 0.474(17) -0.007(14)
0.048(11) -0.017(10) 0.000(11) -0.011(12) -0.023(12) -0.014(14) -0.005(13)
0.070(19) -0.010(18)
0.981(2) 0.757(7) 0.757082 0.757082 0.757082 0.757082
2 3.81056 2 3.81056 2 3.81056 3 3.81056 4 3.81056
C(1) 4.14(7) 0 -0.05(3) 0.003(13) 0.106(18)
0.007(9) -0.033(16) -0.014(8) 0.122(12) -0.040(9)
0.018(11) -0.013(15) 0.048(10) 0.433(17) -0.070(13) 0.009(12) 0.032(11)
-0.119(13) 0.005(15) -0.023(11) -0.017(13) 0.003(13) -0.003(13) -0.020(14)
0.103(13) -0.030(13)
0.984(4) 0.894(9) 0.893822 0.893822 0.893822 0.893822
2 3.1303 2 3.1303 2 3.1303 3 3.1303 4 3.1303
C(2) 4.13(7) 0 -0.07(3) -0.011(12) 0.099(19)
-0.015(9) -0.025(15) 0.026(8) 0.134(11) -0.007(9)
0.010(11) 0.017(15) -0.064(10) 0.446(17) -0.011(13) -0.040(12) -0.054(11)
-0.114(13) 0.029(14) 0.040(11) -0.005(13) 0.004(13) -0.014(13) -0.015(14)
0.104(13) -0.010(12)
0.984(4) 0.894(9) 0.893822 0.893822 0.893822 0.893822
2 3.1303 2 3.1303 2 3.1303 3 3.1303 4 3.1303
C(3) 4.11(6) 0 0.022(19) -0.008(12) 0.105(15)
-0.003(8) 0.003(11) -0.022(8) 0.164(10) -0.018(9)
-0.017(11) -0.082(12) -0.090(10) 0.423(16) -0.087(12) 0.030(11) -0.074(11)
-0.125(13) -0.024(13) 0.044(12) 0.001(13) 0.017(12) -0.007(13) -0.001(13)
0.087(12) -0.042(12)
0.984(4) 0.894(9) 0.893822 0.893822 0.893822 0.893822
2 3.1303 2 3.1303 2 3.1303 3 3.1303 4 3.1303
H(1A) 0.89(5) 0 -0.04(2) -0.04(2) 0.19(3)
0.035(18) -0.0071 -0.006 0.0146 0.0142
0 0 0 0 0 0 0
0 0 0 0 0 0 0 0 0
1.218044 1.2 1.2 1.2 1.2 1.2
0 1.9154 1 1.9154 2 1.9154 3 1.9154 4 1.9154
H(1B) 0.81(3) 0 0.034(18) 0.011(19) 0.09(2)
0.028(16) -0.0086 -0.0089 0.0083 0.0067
0 0 0 0 0 0 0
0 0 0 0 0 0 0 0 0
1.218044 1.2 1.2 1.2 1.2 1.2
0 1.9154 1 1.9154 2 1.9154 3 1.9154 4 1.9154
H(2A) 0.89(5) 0 -0.005(19) -0.07(2) 0.15(3)
0.046(18) -0.0175 0.0167 0.0218 0.022
0 0 0 0 0 0 0
0 0 0 0 0 0 0 0 0
1.218044 1.2 1.2 1.2 1.2 1.2
0 1.9154 1 1.9154 2 1.9154 3 1.9154 4 1.9154
H(2B) 0.80(3) 0 -0.025(17) 0.02(2) 0.10(2)
0.064(16) 0.0053 0.0206 0.0028 -0.0322
0 0 0 0 0 0 0
0 0 0 0 0 0 0 0 0
1.218044 1.2 1.2 1.2 1.2 1.2
0 1.9154 1 1.9154 2 1.9154 3 1.9154 4 1.9154
H(3A) 0.76(3) 0 -0.007(17) -0.007(18) 0.129(19)
0.052(16) 0.002 0.0189 -0.0192 -0.0204
0 0 0 0 0 0 0
0 0 0 0 0 0 0 0 0
1.218044 1.2 1.2 1.2 1.2 1.2
0 1.9154 1 1.9154 2 1.9154 3 1.9154 4 1.9154
H(3B) 0.80(3) 0 0.014(17) -0.012(17) 0.153(19)
0.080(16) -0.0058 0.0042 -0.0207 -0.0015
0 0 0 0 0 0 0
0 0 0 0 0 0 0 0 0
1.218044 1.2 1.2 1.2 1.2 1.2
0 1.9154 1 1.9154 2 1.9154 3 1.9154 4 1.9154
 
loop_
_atom_local_axes_atom_label
_atom_local_axes_atom0
_atom_local_axes_ax1
_atom_local_axes_atom1
_atom_local_axes_atom2
_atom_local_axes_ax2
O(1)       N(4)        Y           O(1)        O(2)        X
O(2)       N(4)        Y           O(2)        O(1)        X
O(3)       N(5)        Y           O(3)        O(4)        X
O(4)       N(5)        Y           O(4)        O(3)        X
O(5)       N(6)        Y           O(5)        O(6)        X
O(6)       N(6)        Y           O(6)        O(5)        X
N(1)       N(4)        X           N(1)        C(2)        Y
N(2)       N(5)        X           N(2)        C(3)        Y
N(3)       N(6)        X           N(3)        C(1)        Y
N(4)       N(1)        X           N(4)        O(1)        Y
N(5)       N(2)        X           N(5)        O(3)        Y
N(6)       N(3)        X           N(6)        O(5)        Y
C(1)       DUM0        Z           C(1)        N(3)        Y
C(2)       DUM1        Z           C(2)        N(1)        Y
C(3)       DUM2        Z           C(3)        N(2)        Y
H(1A)      C(1)        Z           H(1A)       H(1B)       Y
H(1B)      C(1)        Z           H(1B)       H(1A)       Y
H(2A)      C(2)        Z           H(2A)       H(2B)       Y
H(2B)      C(2)        Z           H(2B)       H(2A)       Y
H(3A)      C(3)        Z           H(3A)       H(3B)       Y
H(3B)      C(3)        Z           H(3B)       H(3A)       Y

#-----------------------------------------
data_RDX120KHarmonic
#-----------------------------------------
_exptl_crystal_description    'prism '
_exptl_crystal_colour          colorless
_exptl_crystal_size_max        0.29
_exptl_crystal_size_mid        0.29
_exptl_crystal_size_min        0.17
_chemical_formula_sum          'C3 H6 N6 O6 '
_chemical_formula_moiety       'C3 H6 N6 O6 '
_chemical_formula_weight       222.14
_exptl_crystal_F_000           912.0
_symmetry_cell_setting         Orthorhombic
_symmetry_space_group_name_H-M Pbca
_symmetry_space_group_name_Hall '-P 2ac 2ab' 
_cell_length_a                11.4425(3)
_cell_length_b                10.6106(3)
_cell_length_c                13.1558(4)
_cell_angle_alpha              90.000
_cell_angle_beta               90.000
_cell_angle_gamma              90.000
_cell_volume                   1597.27(8)
_cell_formula_units_Z          8
_exptl_crystal_density_diffrn  1.847
loop_
_symmetry_equiv_pos_site_id
_symmetry_equiv_pos_as_xyz
1        +X,+Y,+Z
2        1/2-X,-Y,1/2+Z
3        -X,1/2+Y,1/2-Z
4        1/2+X,1/2-Y,-Z
5        -X,-Y,-Z
6        1/2+X,+Y,1/2-Z
7        +X,1/2-Y,1/2+Z
8        1/2-X,1/2+Y,+Z
_cell_measurement_reflns_used    173199
_cell_measurement_theta_min      3.043
_cell_measurement_theta_max      66.78
_cell_measurement_temperature    120.0(2)
_diffrn_radiation_type           'Mo K\a'
_diffrn_radiation_wavelength     0.71073
_diffrn_ambient_temperature      120.0(2)
_exptl_absorpt_coefficient_mu    0.176
_exptl_absorpt_correction_T_min ?
_exptl_absorpt_correction_T_max ?
_diffrn_measurement_device       'Rigaku R-axis Rapid'
_diffrn_measurement_method       w
_exptl_absorpt_correction_type   none
_diffrn_reflns_number            173199
_reflns_number_total             12304
_reflns_number_gt                7986
_reflns_threshold_expression 'I>3\s, non-overlapped & non-partial reflections'
_diffrn_reflns_av_R_equivalents  0.0163
_diffrn_reflns_theta_max         66.78
_diffrn_reflns_theta_full        28.28
_diffrn_measured_fraction_theta_full 1.0
_diffrn_measured_fraction_theta_max  0.85
_diffrn_reflns_limit_h_min       -29
_diffrn_reflns_limit_h_max        29
_diffrn_reflns_limit_k_min       -21
_diffrn_reflns_limit_k_max        22
_diffrn_reflns_limit_l_min       -32
_diffrn_reflns_limit_l_max        33
_diffrn_standards_number          ?
_diffrn_standards_interval_time   ?
_diffrn_standards_decay_%         ?
_refine_ls_structure_factor_coef  Fsqd 
_refine_ls_R_factor_gt            0.0182
_refine_ls_wR_factor_ref          0.0165
_refine_ls_hydrogen_treatment     refall
_refine_ls_number_reflns          7986
_refine_ls_number_parameters      604
_refine_ls_goodness_of_fit_ref    0.86
_refine_ls_weighting_scheme       calc                        
_refine_ls_weighting_details
;    calc w2 = q/[s^2^(Fo^2^) + (0.012 P)^2^ + 0.015 P + 0.00 + 0.00 sin(th)]
     where P = (1.0000 Fo^2^ + 0.0000 Fc^2^)
           q = 1.0
;
_refine_ls_shift/su_max           0.0000
_refine_diff_density_max           0.18
_refine_diff_density_min          -0.18
_refine_ls_extinction_method      none
_refine_ls_extinction_coef        0.0                                   
_atom_type_scat_source          'Volkov et al, (2006)'
_computing_data_collection      'CrystalClear,(2005)'
_computing_cell_refinement      'Otwinowski & Minor (1997)'
_computing_data_reduction       'Zhurov et al,(2005)'
_computing_structure_solution   'Sheldrick (1997)'
_computing_structure_refinement 'Volkov et al, (2006)'
_computing_molecular_graphics   'Volkov et al, (2006)'
_computing_publication_material 'Volkov et al, (2006)'

# Atomic coordinates

loop_
_atom_site_label
_atom_site_fract_x
_atom_site_fract_y
_atom_site_fract_z
_atom_site_occupancy
_atom_site_symmetry_multiplicity
_atom_site_U_iso_or_equiv
O(1)    0.56776(3)     0.43438(4)     0.26705(2)     1    8    0.016
O(2)    0.59318(3)     0.23695(5)     0.22958(3)     1    8    0.020
O(3)    0.46546(4)     0.13417(5)    -0.02654(4)     1    8    0.022
O(4)    0.35161(4)     0.25375(5)    -0.11633(2)     1    8    0.020
O(5)    0.31902(4)     0.53295(5)    -0.07162(3)     1    8    0.020
O(6)    0.43275(3)     0.60386(4)     0.04703(4)     1    8    0.021
N(1)    0.434890(17)   0.33561(2)     0.174610(16)   1    8    0.012
N(2)    0.318466(16)   0.23520(2)     0.050912(14)   1    8    0.011
N(3)    0.296879(17)   0.45934(2)     0.086403(15)   1    8    0.011
N(4)    0.536899(14)   0.33530(2)     0.227432(13)   1    8    0.012
N(5)    0.384533(16)   0.20812(2)    -0.036548(14)   1    8    0.013
N(6)    0.355132(16)   0.534949(19)   0.014980(16)   1    8    0.014
C(1)    0.355888(17)   0.44346(2)     0.183682(15)   1    8    0.013
C(2)    0.378155(18)   0.21654(2)     0.147363(14)   1    8    0.012
C(3)    0.240724(15)   0.34487(2)     0.047309(14)   1    8    0.011
H(1A)   0.4048(13)     0.5269(15)     0.2046(11)     1    8    0.025
H(1B)   0.2901(13)     0.4223(13)     0.2383(10)     1    8    0.026
H(2A)   0.4392(14)     0.1425(13)     0.1435(11)     1    8    0.025
H(2B)   0.3109(13)     0.1959(14)     0.2035(11)     1    8    0.027
H(3A)   0.2094(12)     0.3601(14)    -0.0291(11)     1    8    0.020
H(3B)   0.1678(12)     0.3253(12)     0.0991(10)     1    8    0.020
 
# Dummy atom coordinates

loop_
_atom_dummy_label
_atom_dummy_fract_x
_atom_dummy_fract_y
_atom_dummy_fract_z
DUM0    0.3479         0.4709         0.2227
DUM1    0.3809         0.1675         0.1758
DUM2    0.1939         0.3351         0.0385
 
# Anisotropic displacement parameters

loop_
_atom_site_aniso_label
_atom_site_aniso_U_11
_atom_site_aniso_U_22
_atom_site_aniso_U_33
_atom_site_aniso_U_12
_atom_site_aniso_U_13
_atom_site_aniso_U_23
O(1) 0.01423(8) 0.02071(13) 0.01442(9) -0.00405(9) -0.00425(7) -0.00119(9)
O(2) 0.01457(9) 0.02009(15) 0.02402(13) 0.00268(10) -0.00619(9) 0.00376(12)
O(3) 0.01957(11) 0.02228(16) 0.02339(15) 0.00559(11) 0.00731(10) -0.00288(13)
O(4) 0.02403(13) 0.02673(16) 0.00925(8) -0.00094(12) 0.00329(8) -0.00143(10)
O(5) 0.02479(13) 0.02047(15) 0.01509(10) 0.00288(12) 0.00466(9) 0.00570(11)
O(6) 0.01672(10) 0.01540(14) 0.02986(16) -0.00389(9) 0.00620(11) 0.00031(13)
N(1) 0.01126(5) 0.01134(8) 0.01318(6) -0.00015(5) -0.00399(5) -0.00043(6)
N(2) 0.01044(5) 0.01249(8) 0.00890(5) -0.00101(5) 0.00023(4) -0.00121(5)
N(3) 0.00990(5) 0.01208(8) 0.01184(6) 0.00020(5) -0.00063(4) 0.00122(6)
N(4) 0.01027(5) 0.01587(8) 0.01044(5) -0.00122(5) -0.00227(4) 0.00218(5)
N(5) 0.01341(5) 0.01476(7) 0.01152(5) -0.00197(5) 0.00339(4) -0.00279(5)
N(6) 0.01248(5) 0.01183(7) 0.01679(7) 0.00193(5) 0.00428(5) 0.00268(5)
C(1) 0.01304(6) 0.01257(8) 0.01231(6) 0.00056(5) -0.00203(5) -0.00225(6)
C(2) 0.01466(6) 0.01080(8) 0.01096(6) -0.00141(5) -0.00178(5) 0.00122(5)
C(3) 0.00825(5) 0.01490(8) 0.01089(6) -0.00065(5) -0.00048(4) -0.00028(5)
H(1A) 0.028(4) 0.017(4) 0.029(4) 0.002(3) -0.006(3) -0.002(3)
H(1B) 0.024(4) 0.032(4) 0.022(4) 0.006(3) -0.001(3) -0.002(3)
H(2A) 0.026(4) 0.020(4) 0.031(4) 0.002(3) -0.009(3) -0.006(3)
H(2B) 0.027(4) 0.033(4) 0.022(4) -0.015(3) 0.007(3) -0.002(3)
H(3A) 0.018(3) 0.027(4) 0.015(4) 0.000(3) -0.003(3) 0.002(3)
H(3B) 0.016(3) 0.025(3) 0.021(4) -0.004(3) 0.005(3) 0.002(3)
 
 
loop_
_geom_bond_atom_site_label_1
_geom_bond_atom_site_label_2
_geom_bond_distance
_geom_bond_site_symmetry_1
_geom_bond_site_symmetry_2
_geom_bond_publ_flag
O(1)     N(4)      1.2255(4)           1_555     1_555     yes
O(2)     N(4)      1.2265(5)           1_555     1_555     yes
O(3)     N(5)      1.2208(5)           1_555     1_555     yes
O(4)     N(5)      1.2157(5)           1_555     1_555     yes
O(5)     N(6)      1.2122(5)           1_555     1_555     yes
O(6)     N(6)      1.2253(5)           1_555     1_555     yes
N(1)     N(4)      1.3584(2)           1_555     1_555     yes
N(1)     C(1)      1.4632(3)           1_555     1_555     yes
N(1)     C(2)      1.4650(3)           1_555     1_555     yes
N(2)     N(5)      1.4064(3)           1_555     1_555     yes
N(2)     C(2)      1.4546(3)           1_555     1_555     yes
N(2)     C(3)      1.4655(3)           1_555     1_555     yes
N(3)     N(6)      1.4038(3)           1_555     1_555     yes
N(3)     C(1)      1.4568(3)           1_555     1_555     yes
N(3)     C(3)      1.4672(3)           1_555     1_555     yes
C(1)     H(1A)     1.083(16)           1_555     1_555     yes
C(1)     H(1B)     1.064(16)           1_555     1_555     yes
C(2)     H(2A)     1.052(16)           1_555     1_555     yes
C(2)     H(2B)     1.089(15)           1_555     1_555     yes
C(3)     H(3A)     1.079(14)           1_555     1_555     yes
C(3)     H(3B)     1.096(14)           1_555     1_555     yes
 
loop_
_geom_angle_atom_site_label_1
_geom_angle_atom_site_label_2
_geom_angle_atom_site_label_3
_geom_angle
_geom_angle_site_symmetry_1
_geom_angle_site_symmetry_2
_geom_angle_site_symmetry_3
_geom_angle_publ_flag
N(4)     N(1)      C(1)      119.41(2)         1_555    1_555    1_555    yes
N(4)     N(1)      C(2)      120.25(2)         1_555    1_555    1_555    yes
C(1)     N(1)      C(2)      114.877(17)       1_555    1_555    1_555    yes
N(5)     N(2)      C(2)      115.688(18)       1_555    1_555    1_555    yes
N(5)     N(2)      C(3)      117.521(19)       1_555    1_555    1_555    yes
C(2)     N(2)      C(3)      114.919(17)       1_555    1_555    1_555    yes
N(6)     N(3)      C(1)      115.725(19)       1_555    1_555    1_555    yes
N(6)     N(3)      C(3)      116.512(19)       1_555    1_555    1_555    yes
C(1)     N(3)      C(3)      114.529(19)       1_555    1_555    1_555    yes
O(1)     N(4)      O(2)      124.67(3)         1_555    1_555    1_555    yes
O(1)     N(4)      N(1)      117.58(3)         1_555    1_555    1_555    yes
O(2)     N(4)      N(1)      117.71(3)         1_555    1_555    1_555    yes
O(3)     N(5)      O(4)      125.74(3)         1_555    1_555    1_555    yes
O(3)     N(5)      N(2)      116.79(3)         1_555    1_555    1_555    yes
O(4)     N(5)      N(2)      117.28(3)         1_555    1_555    1_555    yes
O(5)     N(6)      O(6)      125.52(4)         1_555    1_555    1_555    yes
O(5)     N(6)      N(3)      117.21(3)         1_555    1_555    1_555    yes
O(6)     N(6)      N(3)      117.06(3)         1_555    1_555    1_555    yes
N(1)     C(1)      N(3)      107.769(17)       1_555    1_555    1_555    yes
N(1)     C(1)      H(1A)     109.9(7)          1_555    1_555    1_555    yes
N(1)     C(1)      H(1B)     109.1(7)          1_555    1_555    1_555    yes
N(3)     C(1)      H(1A)     111.6(8)          1_555    1_555    1_555    yes
N(3)     C(1)      H(1B)     106.8(7)          1_555    1_555    1_555    yes
H(1A)    C(1)      H(1B)     111.5(10)         1_555    1_555    1_555    yes
N(1)     C(2)      N(2)      107.705(17)       1_555    1_555    1_555    yes
N(1)     C(2)      H(2A)     111.2(7)          1_555    1_555    1_555    yes
N(1)     C(2)      H(2B)     108.7(7)          1_555    1_555    1_555    yes
N(2)     C(2)      H(2A)     111.8(7)          1_555    1_555    1_555    yes
N(2)     C(2)      H(2B)     106.7(7)          1_555    1_555    1_555    yes
H(2A)    C(2)      H(2B)     110.6(11)         1_555    1_555    1_555    yes
N(2)     C(3)      N(3)      112.345(16)       1_555    1_555    1_555    yes
N(2)     C(3)      H(3A)     110.5(7)          1_555    1_555    1_555    yes
N(2)     C(3)      H(3B)     107.0(7)          1_555    1_555    1_555    yes
N(3)     C(3)      H(3A)     110.4(8)          1_555    1_555    1_555    yes
N(3)     C(3)      H(3B)     105.8(7)          1_555    1_555    1_555    yes
H(3A)    C(3)      H(3B)     110.7(10)         1_555    1_555    1_555    yes
 
# Multipole parameters

loop_
_atom_rho_multipole_atom_label
_atom_rho_multipole_coeff_Pv
_atom_rho_multipole_coeff_P00
_atom_rho_multipole_coeff_P11
_atom_rho_multipole_coeff_P1-1
_atom_rho_multipole_coeff_P10
_atom_rho_multipole_coeff_P20
_atom_rho_multipole_coeff_P21
_atom_rho_multipole_coeff_P2-1
_atom_rho_multipole_coeff_P22
_atom_rho_multipole_coeff_P2-2
_atom_rho_multipole_coeff_P30
_atom_rho_multipole_coeff_P31
_atom_rho_multipole_coeff_P3-1
_atom_rho_multipole_coeff_P32
_atom_rho_multipole_coeff_P3-2
_atom_rho_multipole_coeff_P33
_atom_rho_multipole_coeff_P3-3
_atom_rho_multipole_coeff_P40
_atom_rho_multipole_coeff_P41
_atom_rho_multipole_coeff_P4-1
_atom_rho_multipole_coeff_P42
_atom_rho_multipole_coeff_P4-2
_atom_rho_multipole_coeff_P43
_atom_rho_multipole_coeff_P4-3
_atom_rho_multipole_coeff_P44
_atom_rho_multipole_coeff_P4-4
_atom_rho_multipole_kappa
_atom_rho_multipole_kappa_prime0
_atom_rho_multipole_kappa_prime1
_atom_rho_multipole_kappa_prime2
_atom_rho_multipole_kappa_prime3
_atom_rho_multipole_kappa_prime4
_atom_rho_multipole_radial_slater_n0
_atom_rho_multipole_radial_slater_zeta0
_atom_rho_multipole_radial_slater_n1
_atom_rho_multipole_radial_slater_zeta1
_atom_rho_multipole_radial_slater_n2
_atom_rho_multipole_radial_slater_zeta2
_atom_rho_multipole_radial_slater_n3
_atom_rho_multipole_radial_slater_zeta3
_atom_rho_multipole_radial_slater_n4
_atom_rho_multipole_radial_slater_zeta4
O(1) 6.173(13) 0 0.003(6) -0.073(7) 0.000(6)
-0.024(7) 0.006(6) 0.008(7) 0.133(7) 0.011(7)
-0.014(5) -0.026(5) -0.035(5) 0.005(5) 0.003(5) -0.036(5) -0.035(5)
-0.010(7) -0.003(6) -0.009(6) 0.008(6) 0.006(6) 0.001(6) -0.003(6) 0.019(6)
-0.010(6)
0.9841(9) 1.249(16) 1.248981 1.248981 1.248981 1.248981
2 4.4974 2 4.4974 2 4.4974 3 4.4974 4 4.4974
O(2) 6.156(14) 0 -0.064(7) -0.137(7) -0.030(8)
-0.008(9) 0.015(8) 0.008(8) 0.151(7) -0.001(7)
0.027(6) -0.011(5) 0.007(6) -0.024(5) -0.035(5) -0.008(5) -0.059(5)
0.001(8) 0.001(7) -0.009(7) -0.002(7) -0.010(7) 0.004(7) 0.011(7) 0.005(6)
0.008(6)
0.9841(9) 1.249(16) 1.248981 1.248981 1.248981 1.248981
2 4.4974 2 4.4974 2 4.4974 3 4.4974 4 4.4974
O(3) 6.159(15) 0 0.042(8) -0.015(8) -0.064(9)
-0.090(10) -0.012(9) -0.040(9) 0.148(8) 0.029(8)
-0.025(6) -0.039(6) -0.009(6) 0.023(6) 0.000(6) -0.048(5) -0.008(5)
0.019(8) 0.001(7) -0.011(8) 0.008(7) -0.014(8) 0.001(7) 0.011(7) 0.005(7)
-0.012(6)
0.9841(9) 1.249(16) 1.248981 1.248981 1.248981 1.248981
2 4.4974 2 4.4974 2 4.4974 3 4.4974 4 4.4974
O(4) 6.162(14) 0 -0.065(7) -0.143(7) 0.005(8)
-0.068(9) -0.026(8) -0.024(8) 0.127(7) 0.005(7)
-0.019(6) -0.009(5) -0.009(6) 0.021(5) 0.006(5) -0.003(5) -0.067(5)
0.010(8) -0.009(7) 0.003(7) 0.007(7) -0.015(7) 0.006(7) -0.014(7) 0.020(6)
-0.006(6)
0.9841(9) 1.249(16) 1.248981 1.248981 1.248981 1.248981
2 4.4974 2 4.4974 2 4.4974 3 4.4974 4 4.4974
O(5) 6.098(14) 0 -0.093(8) -0.187(8) 0.015(7)
-0.051(8) 0.035(8) 0.001(8) 0.131(8) 0.026(8)
0.047(6) 0.010(5) -0.010(5) -0.027(5) -0.040(5) -0.015(5) -0.073(5)
0.006(7) -0.001(7) 0.002(7) 0.000(7) -0.010(7) 0.008(7) 0.005(7) 0.009(7)
0.003(7)
0.9841(9) 1.249(16) 1.248981 1.248981 1.248981 1.248981
2 4.4974 2 4.4974 2 4.4974 3 4.4974 4 4.4974
O(6) 6.178(14) 0 0.067(8) -0.015(8) -0.011(7)
-0.074(8) -0.018(8) 0.021(8) 0.138(8) 0.039(8)
-0.001(6) -0.055(5) -0.055(5) 0.003(5) -0.023(6) -0.039(6) 0.005(6)
0.014(7) 0.004(7) -0.005(7) 0.013(7) -0.006(7) 0.017(7) 0.000(7) 0.003(7)
-0.013(7)
0.9841(9) 1.249(16) 1.248981 1.248981 1.248981 1.248981
2 4.4974 2 4.4974 2 4.4974 3 4.4974 4 4.4974
N(1) 4.971(14) 0 -0.069(7) 0.001(7) 0.031(7)
0.086(7) -0.008(6) -0.008(7) -0.032(7) -0.006(7)
0.012(6) -0.005(6) -0.025(6) 0.021(6) -0.040(6) 0.149(7) -0.006(7)
-0.004(8) 0.002(7) -0.002(8) -0.019(8) 0.010(8) -0.014(7) 0.012(8) -0.007(8)
0.007(8)
0.9964(13) 1.026(16) 1.025617 1.025617 1.025617 1.025617
2 3.81056 2 3.81056 2 3.81056 3 3.81056 4 3.81056
N(2) 4.932(14) 0 -0.068(7) -0.001(7) -0.070(6)
0.093(6) 0.003(6) 0.017(6) -0.060(6) 0.002(6)
-0.024(6) -0.032(6) -0.047(6) -0.021(6) 0.049(6) 0.129(7) -0.004(7)
0.020(8) -0.010(7) -0.008(7) -0.009(7) 0.014(7) 0.021(7) 0.001(8) 0.012(8)
0.011(8)
0.9964(13) 1.026(16) 1.025617 1.025617 1.025617 1.025617
2 3.81056 2 3.81056 2 3.81056 3 3.81056 4 3.81056
N(3) 4.930(14) 0 -0.062(7) -0.036(7) -0.049(7)
0.076(6) 0.024(6) 0.036(6) -0.078(6) -0.009(6)
-0.026(6) -0.023(6) -0.041(6) -0.016(6) 0.045(6) 0.126(7) -0.010(6)
0.003(8) 0.004(7) -0.007(7) -0.024(8) 0.006(7) 0.039(8) 0.016(8) 0.011(8)
0.009(7)
0.9964(13) 1.026(16) 1.025617 1.025617 1.025617 1.025617
2 3.81056 2 3.81056 2 3.81056 3 3.81056 4 3.81056
N(4) 4.933(13) 0 -0.005(10) -0.021(11) 0.008(8)
-0.259(9) -0.002(8) -0.029(8) -0.076(9) 0.004(10)
-0.023(10) 0.016(9) 0.019(10) -0.029(9) 0.008(10) 0.452(13) 0.008(11)
0.069(12) 0.004(11) 0.025(11) 0.020(12) 0.012(12) 0.003(13) 0.046(13) 0.049(15)
-0.008(15)
0.9904(12) 0.752(7) 0.751694 0.751694 0.751694 0.751694
2 3.81056 2 3.81056 2 3.81056 3 3.81056 4 3.81056
N(5) 4.941(13) 0 -0.022(9) -0.035(11) -0.004(8)
-0.260(9) 0.020(8) 0.036(8) -0.085(9) 0.010(10)
0.005(10) -0.006(9) 0.010(10) 0.035(9) -0.038(10) 0.445(13) 0.005(11)
0.073(13) -0.013(11) -0.001(12) 0.029(12) -0.013(12) 0.018(13) -0.006(13)
0.081(15) 0.015(15)
0.9904(12) 0.752(7) 0.751694 0.751694 0.751694 0.751694
2 3.81056 2 3.81056 2 3.81056 3 3.81056 4 3.81056
N(6) 4.945(12) 0 -0.022(9) 0.081(11) 0.021(8)
-0.274(9) 0.004(8) 0.009(8) -0.114(9) -0.041(10)
0.007(10) -0.000(9) -0.042(10) 0.023(10) -0.020(10) 0.466(13) -0.019(11)
0.081(13) -0.020(11) 0.000(12) 0.013(12) 0.014(12) -0.019(13) 0.019(13)
0.075(16) 0.006(16)
0.9904(12) 0.752(7) 0.751694 0.751694 0.751694 0.751694
2 3.81056 2 3.81056 2 3.81056 3 3.81056 4 3.81056
C(1) 4.172(8) 0 0.051(9) 0.005(11) 0.098(10)
0.000(10) 0.011(9) -0.023(9) 0.134(10) -0.037(10)
0.020(12) -0.001(15) 0.049(11) 0.442(14) -0.073(14) 0.033(11) 0.026(12)
-0.127(15) 0.004(17) -0.023(13) -0.026(15) 0.006(15) 0.016(14) -0.026(15)
0.110(14) -0.029(14)
0.9817(19) 0.886(9) 0.885968 0.885968 0.885968 0.885968
2 3.1303 2 3.1303 2 3.1303 3 3.1303 4 3.1303
C(2) 4.154(8) 0 0.000(9) -0.008(11) 0.109(10)
-0.014(10) 0.002(9) 0.023(9) 0.135(9) -0.011(10)
0.013(12) 0.011(15) -0.061(11) 0.450(14) -0.015(13) -0.018(11) -0.043(12)
-0.120(15) 0.023(16) 0.036(13) -0.007(15) 0.004(15) -0.007(14) -0.020(15)
0.111(14) -0.003(14)
0.9817(19) 0.886(9) 0.885968 0.885968 0.885968 0.885968
2 3.1303 2 3.1303 2 3.1303 3 3.1303 4 3.1303
C(3) 4.149(8) 0 0.021(8) -0.014(11) 0.123(10)
0.000(9) 0.010(9) -0.023(9) 0.174(9) -0.021(10)
-0.020(11) -0.088(13) -0.090(11) 0.436(13) -0.095(13) 0.037(11) -0.076(11)
-0.136(14) -0.019(15) 0.051(13) 0.004(15) 0.015(14) -0.026(14) 0.006(15)
0.092(13) -0.053(13)
0.9817(19) 0.886(9) 0.885968 0.885968 0.885968 0.885968
2 3.1303 2 3.1303 2 3.1303 3 3.1303 4 3.1303
H(1A) 0.787(13) 0 -0.04(2) -0.03(2) 0.147(19)
0.024(17) -0.0071 -0.006 0.0146 0.0142
0 0 0 0 0 0 0
0 0 0 0 0 0 0 0 0
1.194953 1.2 1.2 1.2 1.2 1.2
0 1.9154 1 1.9154 2 1.9154 3 1.9154 4 1.9154
H(1B) 0.905(14) 0 0.03(2) 0.01(2) 0.12(2)
0.031(17) -0.0086 -0.0089 0.0083 0.0067
0 0 0 0 0 0 0
0 0 0 0 0 0 0 0 0
1.194953 1.2 1.2 1.2 1.2 1.2
0 1.9154 1 1.9154 2 1.9154 3 1.9154 4 1.9154
H(2A) 0.827(13) 0 0.01(2) -0.05(2) 0.123(19)
0.045(17) -0.0175 0.0167 0.0218 0.022
0 0 0 0 0 0 0
0 0 0 0 0 0 0 0 0
1.194953 1.2 1.2 1.2 1.2 1.2
0 1.9154 1 1.9154 2 1.9154 3 1.9154 4 1.9154
H(2B) 0.859(14) 0 -0.03(2) 0.00(2) 0.125(18)
0.079(15) 0.0053 0.0206 0.0028 -0.0322
0 0 0 0 0 0 0
0 0 0 0 0 0 0 0 0
1.194953 1.2 1.2 1.2 1.2 1.2
0 1.9154 1 1.9154 2 1.9154 3 1.9154 4 1.9154
H(3A) 0.758(13) 0 -0.01(2) -0.00(2) 0.114(17)
0.036(15) 0.002 0.0189 -0.0192 -0.0204
0 0 0 0 0 0 0
0 0 0 0 0 0 0 0 0
1.194953 1.2 1.2 1.2 1.2 1.2
0 1.9154 1 1.9154 2 1.9154 3 1.9154 4 1.9154
H(3B) 0.795(13) 0 0.01(2) -0.00(2) 0.155(17)
0.067(15) -0.0058 0.0042 -0.0207 -0.0015
0 0 0 0 0 0 0
0 0 0 0 0 0 0 0 0
1.194953 1.2 1.2 1.2 1.2 1.2
0 1.9154 1 1.9154 2 1.9154 3 1.9154 4 1.9154
 
loop_
_atom_local_axes_atom_label
_atom_local_axes_atom0
_atom_local_axes_ax1
_atom_local_axes_atom1
_atom_local_axes_atom2
_atom_local_axes_ax2
O(1)       N(4)        Y           O(1)        O(2)        X
O(2)       N(4)        Y           O(2)        O(1)        X
O(3)       N(5)        Y           O(3)        O(4)        X
O(4)       N(5)        Y           O(4)        O(3)        X
O(5)       N(6)        Y           O(5)        O(6)        X
O(6)       N(6)        Y           O(6)        O(5)        X
N(1)       N(4)        X           N(1)        C(2)        Y
N(2)       N(5)        X           N(2)        C(3)        Y
N(3)       N(6)        X           N(3)        C(1)        Y
N(4)       N(1)        X           N(4)        O(1)        Y
N(5)       N(2)        X           N(5)        O(3)        Y
N(6)       N(3)        X           N(6)        O(5)        Y
C(1)       DUM0        Z           C(1)        N(3)        Y
C(2)       DUM1        Z           C(2)        N(1)        Y
C(3)       DUM2        Z           C(3)        N(2)        Y
H(1A)      C(1)        Z           H(1A)       H(1B)       Y
H(1B)      C(1)        Z           H(1B)       H(1A)       Y
H(2A)      C(2)        Z           H(2A)       H(2B)       Y
H(2B)      C(2)        Z           H(2B)       H(2A)       Y
H(3A)      C(3)        Z           H(3A)       H(3B)       Y
H(3B)      C(3)        Z           H(3B)       H(3A)       Y

#-----------------------------------------
data_RDX298KAnharmonic
#-----------------------------------------
_exptl_crystal_description    'pyramid '
_exptl_crystal_colour          colorless
_exptl_crystal_size_max        0.29
_exptl_crystal_size_mid        0.29
_exptl_crystal_size_min        0.29
_chemical_formula_sum          'C3 H6 N6 O6 '
_chemical_formula_moiety       'C3 H6 N6 O6 '
_chemical_formula_weight       222.14
_exptl_crystal_F_000           912.0
_symmetry_cell_setting         Orthorhombic
_symmetry_space_group_name_H-M Pbca
_symmetry_space_group_name_Hall '-P 2ac 2ab' 
_cell_length_a                11.6103(4)
_cell_length_b                10.7291(3)
_cell_length_c                13.2013(4)
_cell_angle_alpha              90.000
_cell_angle_beta               90.000
_cell_angle_gamma              90.000
_cell_volume                   1644.46(8)
_cell_formula_units_Z          8
_exptl_crystal_density_diffrn  1.794
loop_
_symmetry_equiv_pos_site_id
_symmetry_equiv_pos_as_xyz
1        +X,+Y,+Z
2        1/2-X,-Y,1/2+Z
3        -X,1/2+Y,1/2-Z
4        1/2+X,1/2-Y,-Z
5        -X,-Y,-Z
6        1/2+X,+Y,1/2-Z
7        +X,1/2-Y,1/2+Z
8        1/2-X,1/2+Y,+Z
_cell_measurement_reflns_used    238374
_cell_measurement_theta_min      3.011
_cell_measurement_theta_max      41.43
_cell_measurement_temperature    298
_diffrn_radiation_type           'Mo K\a'
_diffrn_radiation_wavelength     0.71073
_diffrn_ambient_temperature      298
_exptl_absorpt_coefficient_mu    0.171
_exptl_absorpt_correction_T_min ?
_exptl_absorpt_correction_T_max ?
_diffrn_measurement_device       'Rigaku R-axis Rapid'
_diffrn_measurement_method       w
_exptl_absorpt_correction_type   none
_diffrn_reflns_number            238374
_reflns_number_total             5403
_reflns_number_gt                3943
_reflns_threshold_expression 'I>3\s, non-overlapped & non-partial reflections'
_diffrn_reflns_av_R_equivalents  0.0167
_diffrn_reflns_theta_max         41.43
_diffrn_reflns_theta_full        28.28
_diffrn_measured_fraction_theta_full 1.0
_diffrn_measured_fraction_theta_max  0.97
_diffrn_reflns_limit_h_min       -21
_diffrn_reflns_limit_h_max        21
_diffrn_reflns_limit_k_min       -19
_diffrn_reflns_limit_k_max        19
_diffrn_reflns_limit_l_min       -24
_diffrn_reflns_limit_l_max        24
_diffrn_standards_number          ?
_diffrn_standards_interval_time   ?
_diffrn_standards_decay_%         ?
_refine_ls_structure_factor_coef  Fsqd 
_refine_ls_R_factor_gt            0.0100
_refine_ls_wR_factor_ref          0.0075
_refine_ls_hydrogen_treatment     refall
_refine_ls_number_reflns          3943
_refine_ls_number_parameters      859
_refine_ls_goodness_of_fit_ref    1.25
_refine_ls_weighting_scheme       calc                        
_refine_ls_weighting_details
;    calc w2 = q/[s^2^(Fo^2^) + (0.005 P)^2^ + 0.006 P + 0.00 + 0.00 sin(th)]
     where P = (1.0000 Fo^2^ + 0.0000 Fc^2^)
           q = 1.0
;
_refine_ls_shift/su_max           0.0000
_refine_diff_density_max           0.06
_refine_diff_density_min          -0.05
_refine_ls_extinction_method      none
_refine_ls_extinction_coef        0.0                                   
_atom_type_scat_source          'Volkov et al, (2006)'
_computing_data_collection      'CrystalClear,(2005)'
_computing_cell_refinement      'Otwinowski & Minor (1997)'
_computing_data_reduction       'Zhurov et al,(2005)'
_computing_structure_solution   'Sheldrick (1997)'
_computing_structure_refinement 'Volkov et al, (2006)'
_computing_molecular_graphics   'Volkov et al, (2006)'
_computing_publication_material 'Volkov et al, (2006)'
 
# Atomic coordinates

loop_
_atom_site_label
_atom_site_fract_x
_atom_site_fract_y
_atom_site_fract_z
_atom_site_occupancy
_atom_site_symmetry_multiplicity
_atom_site_U_iso_or_equiv
O(1)    0.56849(5)     0.43256(9)     0.26366(6)     1    8    0.049
O(2)    0.59335(7)     0.23759(9)     0.22690(8)     1    8    0.057
O(3)    0.46859(9)     0.13864(11)   -0.02406(5)     1    8    0.066
O(4)    0.35312(9)     0.25231(11)   -0.11236(6)     1    8    0.063
O(5)    0.31348(10)    0.52470(10)   -0.06986(7)     1    8    0.067
O(6)    0.42704(8)     0.59865(9)     0.04471(7)     1    8    0.068
N(1)    0.43602(4)     0.33305(5)     0.17611(4)     1    8    0.036
N(2)    0.32173(10)    0.23215(9)     0.05365(4)     1    8    0.031
N(3)    0.29937(6)     0.45302(6)     0.08758(5)     1    8    0.034
N(4)    0.53767(8)     0.33450(6)     0.22577(5)     1    8    0.035
N(5)    0.38757(7)     0.20834(8)    -0.03336(7)     1    8    0.040
N(6)    0.35216(7)     0.52895(9)     0.01551(7)     1    8    0.044
C(1)    0.35879(8)     0.43948(9)     0.18356(7)     1    8    0.037
C(2)    0.38160(8)     0.21563(9)     0.14918(6)     1    8    0.035
C(3)    0.24457(6)     0.33925(9)     0.05052(5)     1    8    0.033
H(1A)   0.4017(11)     0.5228(12)     0.2055(9)      1    8    0.062
H(1B)   0.2921(10)     0.4197(10)     0.2394(7)      1    8    0.050
H(2A)   0.4430(12)     0.1422(9)      0.1468(9)      1    8    0.056
H(2B)   0.3156(11)     0.1931(9)      0.2066(7)      1    8    0.054
H(3A)   0.2099(8)      0.3526(9)     -0.0252(8)      1    8    0.051
H(3B)   0.1736(7)      0.3198(8)      0.1017(8)      1    8    0.045
 
# Dummy atom coordinates

loop_
_atom_dummy_label
_atom_dummy_fract_x
_atom_dummy_fract_y
_atom_dummy_fract_z
DUM0    0.3479         0.4709         0.2227
DUM1    0.3809         0.1675         0.1758
DUM2    0.1939         0.3351         0.0385
 
# Anisotropic displacement parameters

loop_
_atom_site_aniso_label
_atom_site_aniso_U_11
_atom_site_aniso_U_22
_atom_site_aniso_U_33
_atom_site_aniso_U_12
_atom_site_aniso_U_13
_atom_site_aniso_U_23
O(1) 0.0421(3) 0.0628(4) 0.0419(4) -0.0161(4) -0.0126(3) -0.0013(3)
O(2) 0.0413(3) 0.0627(4) 0.0682(4) 0.0069(4) -0.0159(4) 0.0124(5)
O(3) 0.0583(6) 0.0619(7) 0.0771(7) 0.0126(5) 0.0252(3) -0.0122(2)
O(4) 0.0790(5) 0.0821(5) 0.0275(3) -0.0062(5) 0.0117(4) -0.0070(4)
O(5) 0.0887(5) 0.0653(4) 0.0481(4) 0.0178(5) 0.0189(4) 0.0249(4)
O(6) 0.0541(6) 0.0409(5) 0.1079(7) -0.0078(4) 0.0294(3) 0.0082(5)
N(1) 0.03502(16) 0.03163(18) 0.0406(2) -0.00053(19) -0.0129(3) -0.00134(17)
N(2) 0.0282(4) 0.0397(3) 0.0261(3) -0.0054(4) 0.0011(4) -0.0042(3)
N(3) 0.0295(2) 0.03497(17) 0.0365(2) 0.0007(3) 0.0005(3) 0.0048(3)
N(4) 0.0308(4) 0.0462(5) 0.0293(3) -0.0038(2) -0.0061(3) 0.0072(2)
N(5) 0.0411(3) 0.0442(4) 0.0356(3) -0.0079(4) 0.0109(4) -0.0095(3)
N(6) 0.0399(3) 0.0357(4) 0.0556(3) 0.0090(3) 0.0177(4) 0.0118(4)
C(1) 0.0397(4) 0.0333(4) 0.0389(4) 0.0015(4) -0.0053(4) -0.0062(3)
C(2) 0.0422(4) 0.0297(4) 0.0327(4) -0.0052(4) -0.0049(3) 0.0042(3)
C(3) 0.0219(3) 0.0477(5) 0.0292(3) -0.0029(3) -0.0006(2) -0.0008(3)
H(1A) 0.051(4) 0.051(5) 0.084(5) 0.001(4) -0.023(3) -0.010(4)
H(1B) 0.048(4) 0.067(4) 0.036(3) 0.008(3) -0.000(3) -0.008(3)
H(2A) 0.061(5) 0.042(4) 0.064(4) 0.001(3) -0.018(4) -0.001(3)
H(2B) 0.065(5) 0.051(3) 0.046(4) -0.019(3) -0.004(3) 0.006(3)
H(3A) 0.048(3) 0.065(3) 0.040(4) 0.003(3) -0.004(3) 0.003(3)
H(3B) 0.038(4) 0.048(3) 0.051(4) -0.009(3) 0.007(3) -0.000(2)
 
# Anharmonic displacement parameters
 
_atom_site_anharm_details
;
The atomic anharmonic pdf is approximated by a Gram-Charlier expansion
about the harmonic pdf, according to the expression :
 
      P(u) = (1 + Cijk*Hijk/3! + Dijkl*Hijkl/4!)*P(0)
 
The coefficients Cijk and Dijkl are refined in the least squares procedure.
The reported coefficients Cijk are multiplied by 1000 and Dijkl by 10000.
;
 
loop_
    _atom_site_anharm_GC_C_label
    _atom_site_anharm_GC_C_111
    _atom_site_anharm_GC_C_222
    _atom_site_anharm_GC_C_333
    _atom_site_anharm_GC_C_112
    _atom_site_anharm_GC_C_122
    _atom_site_anharm_GC_C_113
    _atom_site_anharm_GC_C_133
    _atom_site_anharm_GC_C_223
    _atom_site_anharm_GC_C_233
    _atom_site_anharm_GC_C_123
O(1) -0.00028(4) -0.00289(11) -0.00014(3) 0.00015(3) 0.00046(5) 0.00015(2)
-0.000157(18) -0.00124(4) 0.00019(3) 0.000335(18)
O(2) -0.00022(6) -0.00119(11) -0.00150(6) 0.00002(4) -0.00033(6) 0.00026(3)
-0.00046(3) -0.00175(5) -0.00110(4) -0.00033(2)
O(3) -0.00264(10) 0.00018(13) 0.00013(6) -0.00078(6) -0.00111(7) -0.00090(4)
-0.00054(4) -0.00044(4) 0.00095(4) 0.00076(3)
O(4) -0.00267(10) 0.00188(15) 0.00007(3) 0.00092(6) -0.00003(6) 0.00014(3)
0.00026(2) -0.00004(4) 0.00001(3) 0.00021(2)
O(5) -0.00495(11) -0.00165(12) -0.00032(5) -0.00292(6) -0.00016(6) -0.00039(4)
0.00025(4) -0.00079(5) -0.00034(4) 0.00013(3)
O(6) -0.00018(8) -0.00056(10) -0.00354(10) -0.00089(5) 0.00020(5) -0.00048(4)
-0.00179(5) -0.00018(5) -0.00143(5) -0.00106(3)
N(1) -0.00003(5) -0.00057(6) 0.00025(3) 0.00010(2) -0.00011(4) 0.00007(2)
-0.00016(2) -0.00006(3) -0.000143(15) -0.000004(12)
N(2) -0.00022(5) -0.00003(9) 0.00008(2) 0.00021(3) -0.00019(4) -0.000029(17)
-0.00004(2) -0.00035(2) -0.00003(2) -0.000014(13)
N(3) 0.00026(5) -0.00014(6) -0.00023(3) -0.00003(2) -0.00007(3) -0.000169(17)
0.000129(19) -0.00018(3) -0.000117(18) 0.00013(2)
N(4) -0.00001(5) -0.00103(8) -0.00004(3) 0.00010(3) -0.00009(5) -0.000039(19)
-0.000030(16) -0.00079(3) -0.000253(17) 0.000018(14)
N(5) -0.00078(6) 0.00072(8) 0.00015(5) 0.00026(4) -0.00029(4) -0.00026(2)
-0.00005(2) -0.00045(3) 0.00018(2) 0.000174(16)
N(6) -0.00058(6) -0.00012(8) -0.00066(6) -0.00045(4) -0.00027(4) -0.00026(3)
-0.00026(3) -0.00031(3) -0.00049(3) -0.00022(2)
C(1) 0.00061(6) -0.00047(9) -0.00058(4) 0.00007(4) -0.00006(4) -0.00051(3)
0.00027(2) 0.00016(3) 0.00015(2) -0.000016(17)
C(2) 0.00038(7) -0.00007(8) -0.00012(4) 0.00015(4) -0.00004(4) -0.00018(2)
-0.00006(2) -0.00002(3) 0.000046(19) -0.000156(16)
C(3) -0.00005(4) 0.00021(10) 0.00004(3) -0.00011(3) 0.00003(3) -0.000035(15)
0.000032(15) 0.00019(3) -0.00010(2) 0.000005(14)
 
loop_
    _atom_site_anharm_GC_D_label
    _atom_site_anharm_GC_D_1111
    _atom_site_anharm_GC_D_2222
    _atom_site_anharm_GC_D_3333
    _atom_site_anharm_GC_D_1112
    _atom_site_anharm_GC_D_1222
    _atom_site_anharm_GC_D_1113
    _atom_site_anharm_GC_D_1333
    _atom_site_anharm_GC_D_2223
    _atom_site_anharm_GC_D_2333
    _atom_site_anharm_GC_D_1122
    _atom_site_anharm_GC_D_1133
    _atom_site_anharm_GC_D_2233
    _atom_site_anharm_GC_D_1123
    _atom_site_anharm_GC_D_1223
    _atom_site_anharm_GC_D_1233
O(1) 0.00002(3) 0.00041(8) 0.00003(2) -0.00004(2) -0.00009(3) -0.000030(13)
0.000001(10) 0.00012(3) 0.000010(13) 0.000029(17) 0.000009(8) 0.000035(13)
0.000020(8) -0.000017(11) -0.000015(7)
O(2) 0.00001(3) 0.00031(8) -0.00002(3) -0.00005(2) -0.00016(4) -0.000008(19)
0.000096(17) 0.00015(3) 0.00005(2) 0.00010(2) -0.000025(11) 0.000102(18)
-0.000010(12) 0.000031(15) 0.000043(10)
O(3) -0.00004(7) 0.00009(10) 0.00024(5) -0.00003(3) 0.00003(4) -0.00006(2)
0.00011(2) 0.00001(3) -0.00008(2) 0.00007(3) 0.000027(19) 0.00007(2)
-0.000074(14) 0.000033(14) -0.000059(15)
O(4) 0.00049(7) 0.00040(11) 0.000068(15) -0.00009(4) -0.00006(5) 0.00008(2)
0.000050(14) -0.00016(3) -0.000028(15) 0.00014(3) 0.000066(11) 0.000060(14)
-0.000045(14) 0.000065(15) -0.000025(10)
O(5) -0.00056(7) 0.00023(8) 0.00013(3) -0.00029(4) 0.00003(4) -0.00034(3)
0.000037(19) 0.00020(3) 0.00011(2) -0.00001(3) -0.000043(17) 0.000124(18)
-0.000081(17) 0.000052(17) 0.000032(14)
O(6) 0.00009(6) 0.00016(7) -0.00017(6) -0.00001(3) -0.00006(3) 0.00007(3)
-0.00005(3) 0.00005(3) 0.00013(3) 0.00008(2) 0.00005(2) 0.00007(2) 0.000030(16)
0.000038(15) -0.000011(16)
N(1) 0.00012(2) -0.00006(4) 0.000099(14) 0.000008(14) 0.000044(17) -0.000023(15)
0.000011(11) -0.000027(14) -0.000011(8) 0.000020(14) 0.000024(8) 0.000012(9)
0.000020(6) 0.000002(9) -0.000021(5)
N(2) -0.00008(3) 0.00034(5) 0.000021(14) 0.000023(17) -0.00009(3) -0.000017(12)
0.000001(9) -0.000010(19) 0.000006(10) 0.000034(12) 0.000008(5) 0.000021(8)
-0.000011(6) 0.000008(8) 0.000004(5)
N(3) 0.00014(2) -0.00007(3) 0.000001(13) -0.000032(16) -0.00005(2) 0.000011(12)
0.000022(9) -0.000029(17) -0.000030(10) 0.000035(11) 0.000039(6) -0.000006(8)
-0.000017(7) 0.000004(8) -0.000009(6)
N(4) 0.00007(3) -0.00015(7) 0.000026(15) 0.000043(15) 0.00009(2) 0.000014(12)
-0.000000(8) 0.00006(2) 0.000007(9) -0.000027(16) -0.000002(6) 0.000021(10)
-0.000015(6) 0.000006(9) 0.000013(5)
N(5) -0.00000(3) 0.00008(7) 0.00008(2) -0.00001(2) -0.00000(3) -0.000007(16)
0.000001(12) 0.00000(2) 0.000014(12) 0.000064(16) 0.000026(8) 0.000022(10)
0.000009(9) 0.000006(10) -0.000019(7)
N(6) -0.00007(3) 0.00005(6) -0.00006(3) -0.00004(2) -0.00008(3) -0.000033(17)
-0.000054(15) -0.00006(3) -0.000016(18) 0.000011(16) -0.000027(11) 0.000022(12)
-0.000003(10) -0.000029(11) 0.000008(9)
C(1) 0.00013(4) -0.00015(6) 0.00005(2) 0.00003(2) -0.00000(3) 0.000010(17)
0.000043(13) 0.00006(2) 0.000024(12) 0.000007(15) 0.000038(9) -0.000004(9)
0.000000(8) 0.000014(9) 0.000009(7)
C(2) 0.00001(4) 0.00004(6) 0.00007(2) -0.00001(2) -0.00002(3) 0.000023(15)
0.000015(11) 0.000038(18) 0.000002(10) 0.000019(15) 0.000012(8) 0.000011(8)
-0.000005(7) 0.000009(8) -0.000024(6)
C(3) -0.00002(2) 0.00023(7) 0.000005(15) -0.000006(16) -0.00006(3) 0.000013(10)
0.000002(8) -0.00002(2) -0.000031(11) 0.000026(13) -0.000006(5) -0.000005(9)
-0.000012(6) 0.000020(7) -0.000002(5)
  
loop_
_geom_bond_atom_site_label_1
_geom_bond_atom_site_label_2
_geom_bond_distance
_geom_bond_site_symmetry_1
_geom_bond_site_symmetry_2
_geom_bond_publ_flag
O(1)     N(4)      1.2186(13)          1_555     1_555     yes
O(2)     N(4)      1.2244(13)          1_555     1_555     yes
O(3)     N(5)      1.2079(12)          1_555     1_555     yes
O(4)     N(5)      1.2125(14)          1_555     1_555     yes
O(5)     N(6)      1.2140(14)          1_555     1_555     yes
O(6)     N(6)      1.2098(13)          1_555     1_555     yes
N(1)     N(4)      1.3502(13)          1_555     1_555     yes
N(1)     C(1)      1.4553(12)          1_555     1_555     yes
N(1)     C(2)      1.4535(12)          1_555     1_555     yes
N(2)     N(5)      1.4032(13)          1_555     1_555     yes
N(2)     C(2)      1.4509(12)          1_555     1_555     yes
N(2)     C(3)      1.4576(12)          1_555     1_555     yes
N(3)     N(6)      1.3945(15)          1_555     1_555     yes
N(3)     C(1)      1.4500(11)          1_555     1_555     yes
N(3)     C(3)      1.4609(12)          1_555     1_555     yes
C(1)     H(1A)     1.063(14)           1_555     1_555     yes
C(1)     H(1B)     1.090(12)           1_555     1_555     yes
C(2)     H(2A)     1.063(13)           1_555     1_555     yes
C(2)     H(2B)     1.105(12)           1_555     1_555     yes
C(3)     H(3A)     1.087(10)           1_555     1_555     yes
C(3)     H(3B)     1.085(10)           1_555     1_555     yes
 
loop_
_geom_angle_atom_site_label_1
_geom_angle_atom_site_label_2
_geom_angle_atom_site_label_3
_geom_angle
_geom_angle_site_symmetry_1
_geom_angle_site_symmetry_2
_geom_angle_site_symmetry_3
_geom_angle_publ_flag
N(4)     N(1)      C(1)      119.78(6)         1_555    1_555    1_555    yes
N(4)     N(1)      C(2)      120.58(6)         1_555    1_555    1_555    yes
C(1)     N(1)      C(2)      115.39(7)         1_555    1_555    1_555    yes
N(5)     N(2)      C(2)      115.36(8)         1_555    1_555    1_555    yes
N(5)     N(2)      C(3)      117.07(6)         1_555    1_555    1_555    yes
C(2)     N(2)      C(3)      114.54(7)         1_555    1_555    1_555    yes
N(6)     N(3)      C(1)      116.46(6)         1_555    1_555    1_555    yes
N(6)     N(3)      C(3)      116.81(7)         1_555    1_555    1_555    yes
C(1)     N(3)      C(3)      114.59(6)         1_555    1_555    1_555    yes
O(1)     N(4)      O(2)      124.97(8)         1_555    1_555    1_555    yes
O(1)     N(4)      N(1)      117.77(6)         1_555    1_555    1_555    yes
O(2)     N(4)      N(1)      117.23(7)         1_555    1_555    1_555    yes
O(3)     N(5)      O(4)      125.82(8)         1_555    1_555    1_555    yes
O(3)     N(5)      N(2)      116.99(7)         1_555    1_555    1_555    yes
O(4)     N(5)      N(2)      116.97(7)         1_555    1_555    1_555    yes
O(5)     N(6)      O(6)      125.80(9)         1_555    1_555    1_555    yes
O(5)     N(6)      N(3)      116.67(7)         1_555    1_555    1_555    yes
O(6)     N(6)      N(3)      117.35(7)         1_555    1_555    1_555    yes
N(1)     C(1)      N(3)      108.23(8)         1_555    1_555    1_555    yes
N(1)     C(1)      H(1A)     112.9(6)          1_555    1_555    1_555    yes
N(1)     C(1)      H(1B)     109.3(6)          1_555    1_555    1_555    yes
N(3)     C(1)      H(1A)     112.1(6)          1_555    1_555    1_555    yes
N(3)     C(1)      H(1B)     105.8(5)          1_555    1_555    1_555    yes
H(1A)    C(1)      H(1B)     108.2(9)          1_555    1_555    1_555    yes
N(1)     C(2)      N(2)      108.36(8)         1_555    1_555    1_555    yes
N(1)     C(2)      H(2A)     111.0(6)          1_555    1_555    1_555    yes
N(1)     C(2)      H(2B)     108.9(5)          1_555    1_555    1_555    yes
N(2)     C(2)      H(2A)     112.7(6)          1_555    1_555    1_555    yes
N(2)     C(2)      H(2B)     106.9(5)          1_555    1_555    1_555    yes
H(2A)    C(2)      H(2B)     108.8(8)          1_555    1_555    1_555    yes
N(2)     C(3)      N(3)      112.44(8)         1_555    1_555    1_555    yes
N(2)     C(3)      H(3A)     110.9(5)          1_555    1_555    1_555    yes
N(2)     C(3)      H(3B)     107.3(5)          1_555    1_555    1_555    yes
N(3)     C(3)      H(3A)     111.1(5)          1_555    1_555    1_555    yes
N(3)     C(3)      H(3B)     106.4(5)          1_555    1_555    1_555    yes
H(3A)    C(3)      H(3B)     108.4(7)          1_555    1_555    1_555    yes
 
# Multipole parameters

loop_
_atom_rho_multipole_atom_label
_atom_rho_multipole_coeff_Pv
_atom_rho_multipole_coeff_P00
_atom_rho_multipole_coeff_P11
_atom_rho_multipole_coeff_P1-1
_atom_rho_multipole_coeff_P10
_atom_rho_multipole_coeff_P20
_atom_rho_multipole_coeff_P21
_atom_rho_multipole_coeff_P2-1
_atom_rho_multipole_coeff_P22
_atom_rho_multipole_coeff_P2-2
_atom_rho_multipole_coeff_P30
_atom_rho_multipole_coeff_P31
_atom_rho_multipole_coeff_P3-1
_atom_rho_multipole_coeff_P32
_atom_rho_multipole_coeff_P3-2
_atom_rho_multipole_coeff_P33
_atom_rho_multipole_coeff_P3-3
_atom_rho_multipole_coeff_P40
_atom_rho_multipole_coeff_P41
_atom_rho_multipole_coeff_P4-1
_atom_rho_multipole_coeff_P42
_atom_rho_multipole_coeff_P4-2
_atom_rho_multipole_coeff_P43
_atom_rho_multipole_coeff_P4-3
_atom_rho_multipole_coeff_P44
_atom_rho_multipole_coeff_P4-4
_atom_rho_multipole_kappa
_atom_rho_multipole_kappa_prime0
_atom_rho_multipole_kappa_prime1
_atom_rho_multipole_kappa_prime2
_atom_rho_multipole_kappa_prime3
_atom_rho_multipole_kappa_prime4
_atom_rho_multipole_radial_slater_n0
_atom_rho_multipole_radial_slater_zeta0
_atom_rho_multipole_radial_slater_n1
_atom_rho_multipole_radial_slater_zeta1
_atom_rho_multipole_radial_slater_n2
_atom_rho_multipole_radial_slater_zeta2
_atom_rho_multipole_radial_slater_n3
_atom_rho_multipole_radial_slater_zeta3
_atom_rho_multipole_radial_slater_n4
_atom_rho_multipole_radial_slater_zeta4
O(1) 6.06060(2) 0 0 -0.075(12) -0.020(10)
-0.021(15) 0 -0.028(11) 0.182(12) 0
0.009(8) 0 -0.007(8) 0.021(7) 0 0 0.003(9)
-0.009(8) 0 0.006(8) -0.003(7) 0 0 0.017(8) 0.007(8) 0
0.9871(16) 0.717(16) 0.716936 0.716936 0.716936 0.716936
2 4.4974 2 4.4974 2 4.4974 3 4.4974 4 4.4974
O(2) 6.12430(2) 0 0 -0.066(13) 0.021(13)
-0.022(15) 0 0.013(14) 0.182(13) 0
0.024(9) 0 -0.007(10) -0.005(9) 0 0 -0.023(9)
-0.016(9) 0 -0.008(9) -0.005(9) 0 0 -0.004(9) 0.018(9) 0
0.9871(16) 0.717(16) 0.716936 0.716936 0.716936 0.716936
2 4.4974 2 4.4974 2 4.4974 3 4.4974 4 4.4974
O(3) 6.055200(19) 0 0 -0.051(12) 0.049(14)
-0.048(17) 0 0.019(15) 0.124(16) 0
-0.016(11) 0 -0.018(11) -0.019(9) 0 0 0.010(11)
0.018(10) 0 -0.026(10) 0.004(10) 0 0 -0.024(10) -0.010(10) 0
0.9871(16) 0.717(16) 0.716936 0.716936 0.716936 0.716936
2 4.4974 2 4.4974 2 4.4974 3 4.4974 4 4.4974
O(4) 6.069200(19) 0 0 -0.058(13) 0.018(15)
-0.010(16) 0 0.023(16) 0.152(14) 0
0.010(10) 0 -0.003(10) 0.010(9) 0 0 -0.010(10)
0.011(10) 0 0.006(10) 0.017(9) 0 0 0.010(9) 0.008(10) 0
0.9871(16) 0.717(16) 0.716936 0.716936 0.716936 0.716936
2 4.4974 2 4.4974 2 4.4974 3 4.4974 4 4.4974
O(5) 6.019100(19) 0 0 -0.032(13) 0.022(15)
-0.031(16) 0 0.008(16) 0.183(16) 0
0.001(10) 0 -0.009(10) 0.000(10) 0 0 0.025(12)
-0.004(10) 0 0.002(10) -0.021(10) 0 0 0.001(11) -0.013(11) 0
0.9871(16) 0.717(16) 0.716936 0.716936 0.716936 0.716936
2 4.4974 2 4.4974 2 4.4974 3 4.4974 4 4.4974
O(6) 6.09160(2) 0 0 -0.096(13) 0.033(13)
-0.090(18) 0 0.059(13) 0.181(16) 0
-0.020(9) 0 -0.015(10) -0.015(10) 0 0 -0.008(12)
0.013(9) 0 0.001(9) 0.006(9) 0 0 -0.002(10) -0.003(11) 0
0.9871(16) 0.717(16) 0.716936 0.716936 0.716936 0.716936
2 4.4974 2 4.4974 2 4.4974 3 4.4974 4 4.4974
N(1) 4.913300(8) 0 0 -0.050(5) -0.010(5)
0.032(9) 0 -0.022(6) 0.065(8) 0
-0.022(8) 0 -0.002(7) 0.023(8) 0 0 -0.156(8)
0.019(8) 0 0.011(7) 0.028(8) 0 0 -0.020(8) -0.011(10) 0
0.9971(16) 1.03(3) 1.030928 1.030928 1.030928 1.030928
2 3.81056 2 3.81056 2 3.81056 3 3.81056 4 3.81056
N(2) 4.889500(8) 0 0 -0.025(5) -0.017(14)
0.076(14) 0 -0.036(14) 0.061(6) 0
0.035(7) 0 -0.049(6) -0.025(8) 0 0 -0.126(8)
0.004(7) 0 -0.009(6) 0.029(7) 0 0 0.015(7) -0.015(9) 0
0.9971(16) 1.03(3) 1.030928 1.030928 1.030928 1.030928
2 3.81056 2 3.81056 2 3.81056 3 3.81056 4 3.81056
N(3) 4.880400(8) 0 0 -0.059(5) 0.057(9)
0.063(11) 0 -0.039(8) 0.060(5) 0
0.033(7) 0 -0.009(7) 0.007(8) 0 0 -0.140(8)
-0.004(7) 0 -0.006(7) 0.023(8) 0 0 0.028(7) 0.005(9) 0
0.9971(16) 1.03(3) 1.030928 1.030928 1.030928 1.030928
2 3.81056 2 3.81056 2 3.81056 3 3.81056 4 3.81056
N(4) 5.068500(16) 0 0 -0.063(15) -0.036(11)
-0.249(14) 0 0.018(10) 0.081(13) 0
0.026(9) 0 0.003(8) -0.039(8) 0 0 -0.368(15)
-0.014(10) 0 -0.020(8) -0.011(8) 0 0 0.023(13) 0.103(16) 0
0.9784(17) 0.749(11) 0.748784 0.748784 0.748784 0.748784
2 3.81056 2 3.81056 2 3.81056 3 3.81056 4 3.81056
N(5) 5.102200(14) 0 0 -0.064(14) 0.058(14)
-0.217(15) 0 -0.019(12) 0.114(14) 0
-0.039(11) 0 -0.006(9) 0.031(9) 0 0 -0.376(16)
-0.015(10) 0 -0.021(9) -0.012(9) 0 0 -0.043(15) 0.119(18) 0
0.9784(17) 0.749(11) 0.748784 0.748784 0.748784 0.748784
2 3.81056 2 3.81056 2 3.81056 3 3.81056 4 3.81056
N(6) 5.096100(14) 0 0 -0.069(16) -0.034(13)
-0.265(16) 0 0.033(12) 0.115(17) 0
-0.009(11) 0 -0.006(9) 0.018(9) 0 0 -0.351(18)
-0.003(11) 0 -0.015(9) -0.009(10) 0 0 -0.039(15) 0.12(2) 0
0.9784(17) 0.749(11) 0.748784 0.748784 0.748784 0.748784
2 3.81056 2 3.81056 2 3.81056 3 3.81056 4 3.81056
C(1) 4.333800(8) 0 0.038(14) -0.002(16) 0.165(14)
-0.013(16) -0.032(12) 0.015(14) 0.143(14) 0.053(16)
0.045(11) -0.057(18) -0.004(10) 0.466(12) -0.091(15) 0.048(12) 0.000(12)
-0.137(11) -0.026(15) 0.000(10) -0.032(13) 0.021(12) 0.015(11) -0.017(12)
0.108(12) 0.003(12)
0.9663(18) 0.823(8) 0.823301 0.823301 0.823301 0.823301
2 3.1303 2 3.1303 2 3.1303 3 3.1303 4 3.1303
C(2) 4.301000(7) 0 0.005(14) -0.031(16) 0.130(14)
0.034(15) -0.027(12) 0.025(14) 0.121(13) -0.006(15)
0.002(11) -0.031(18) -0.028(9) 0.479(12) -0.086(14) -0.020(11) -0.022(12)
-0.129(12) -0.002(16) 0.002(9) -0.018(12) 0.010(12) -0.007(10) -0.020(13)
0.131(10) -0.049(12)
0.9663(18) 0.823(8) 0.823301 0.823301 0.823301 0.823301
2 3.1303 2 3.1303 2 3.1303 3 3.1303 4 3.1303
C(3) 4.251000(8) 0 0.029(11) -0.042(16) 0.092(12)
0.027(12) -0.005(10) 0.036(13) 0.120(11) 0.030(14)
0.027(10) -0.010(15) -0.071(10) 0.503(12) -0.036(14) -0.010(10) -0.009(12)
-0.173(11) -0.011(14) 0.058(10) -0.032(11) 0.055(11) 0.004(10) -0.023(13)
0.089(11) 0.001(12)
0.9663(18) 0.823(8) 0.823301 0.823301 0.823301 0.823301
2 3.1303 2 3.1303 2 3.1303 3 3.1303 4 3.1303
H(1A) 0.778800(9) 0 0.030(19) -0.06(2) 0.138(18)
-0.011(14) 0 0 0 0
0 0 0 0 0 0 0
0 0 0 0 0 0 0 0 0
1.175666 1.2 1.2 1.2 1.2 1.2
0 1.9154 1 1.9154 2 1.9154 3 1.9154 4 1.9154
H(1B) 0.805300(9) 0 0.020(18) -0.01(2) 0.119(15)
0.019(12) 0 0 0 0
0 0 0 0 0 0 0
0 0 0 0 0 0 0 0 0
1.175666 1.2 1.2 1.2 1.2 1.2
0 1.9154 1 1.9154 2 1.9154 3 1.9154 4 1.9154
H(2A) 0.784200(8) 0 -0.011(19) -0.06(2) 0.150(16)
-0.005(14) 0 0 0 0
0 0 0 0 0 0 0
0 0 0 0 0 0 0 0 0
1.175666 1.2 1.2 1.2 1.2 1.2
0 1.9154 1 1.9154 2 1.9154 3 1.9154 4 1.9154
H(2B) 0.797200(7) 0 -0.040(18) -0.02(2) 0.149(15)
0.028(12) 0 0 0 0
0 0 0 0 0 0 0
0 0 0 0 0 0 0 0 0
1.175666 1.2 1.2 1.2 1.2 1.2
0 1.9154 1 1.9154 2 1.9154 3 1.9154 4 1.9154
H(3A) 0.772700(8) 0 0.008(17) -0.048(19) 0.170(13)
0.022(12) 0 0 0 0
0 0 0 0 0 0 0
0 0 0 0 0 0 0 0 0
1.175666 1.2 1.2 1.2 1.2 1.2
0 1.9154 1 1.9154 2 1.9154 3 1.9154 4 1.9154
H(3B) 0.804700(9) 0 0.052(17) -0.049(17) 0.161(14)
0.044(11) 0 0 0 0
0 0 0 0 0 0 0
0 0 0 0 0 0 0 0 0
1.175666 1.2 1.2 1.2 1.2 1.2
0 1.9154 1 1.9154 2 1.9154 3 1.9154 4 1.9154
 
loop_
_atom_local_axes_atom_label
_atom_local_axes_atom0
_atom_local_axes_ax1
_atom_local_axes_atom1
_atom_local_axes_atom2
_atom_local_axes_ax2
O(1)       N(4)        Y           O(1)        O(2)        X
O(2)       N(4)        Y           O(2)        O(1)        X
O(3)       N(5)        Y           O(3)        O(4)        X
O(4)       N(5)        Y           O(4)        O(3)        X
O(5)       N(6)        Y           O(5)        O(6)        X
O(6)       N(6)        Y           O(6)        O(5)        X
N(1)       N(4)        Y           N(1)        C(2)        X
N(2)       N(5)        Y           N(2)        C(3)        X
N(3)       N(6)        Y           N(3)        C(1)        X
N(4)       N(1)        Y           N(4)        O(1)        X
N(5)       N(2)        Y           N(5)        O(3)        X
N(6)       N(3)        Y           N(6)        O(5)        X
C(1)       DUM0        Z           C(1)        N(3)        Y
C(2)       DUM1        Z           C(2)        N(1)        Y
C(3)       DUM2        Z           C(3)        N(2)        Y
H(1A)      C(1)        Z           H(1A)       H(1B)       Y
H(1B)      C(1)        Z           H(1B)       H(1A)       Y
H(2A)      C(2)        Z           H(2A)       H(2B)       Y
H(2B)      C(2)        Z           H(2B)       H(2A)       Y
H(3A)      C(3)        Z           H(3A)       H(3B)       Y
H(3B)      C(3)        Z           H(3B)       H(3A)       Y

#-----------------------------------------
data_RDX298KHarmonic
#-----------------------------------------
_exptl_crystal_description    'pyramid '
_exptl_crystal_colour          colorless
_exptl_crystal_size_max        0.29
_exptl_crystal_size_mid        0.29
_exptl_crystal_size_min        0.29
_chemical_formula_sum          'C3 H6 N6 O6 '
_chemical_formula_moiety       'C3 H6 N6 O6 '
_chemical_formula_weight       222.14
_exptl_crystal_F_000           912.0
_symmetry_cell_setting         Orthorhombic
_symmetry_space_group_name_H-M Pbca
_symmetry_space_group_name_Hall '-P 2ac 2ab' 
_cell_length_a                11.6103(4)
_cell_length_b                10.7291(3)
_cell_length_c                13.2013(4)
_cell_angle_alpha              90.000
_cell_angle_beta               90.000
_cell_angle_gamma              90.000
_cell_volume                   1644.46(8)
_cell_formula_units_Z          8
_exptl_crystal_density_diffrn  1.794
loop_
_symmetry_equiv_pos_site_id
_symmetry_equiv_pos_as_xyz
1        +X,+Y,+Z
2        1/2-X,-Y,1/2+Z
3        -X,1/2+Y,1/2-Z
4        1/2+X,1/2-Y,-Z
5        -X,-Y,-Z
6        1/2+X,+Y,1/2-Z
7        +X,1/2-Y,1/2+Z
8        1/2-X,1/2+Y,+Z
_cell_measurement_reflns_used    238374
_cell_measurement_theta_min      3.011
_cell_measurement_theta_max      41.43
_cell_measurement_temperature    298
_diffrn_radiation_type           'Mo K\a'
_diffrn_radiation_wavelength     0.71073
_diffrn_ambient_temperature      298
_exptl_absorpt_coefficient_mu    0.171
_exptl_absorpt_correction_T_min ?
_exptl_absorpt_correction_T_max ?
_diffrn_measurement_device       'Rigaku R-axis Rapid'
_diffrn_measurement_method       w
_exptl_absorpt_correction_type   none
_diffrn_reflns_number            238374
_reflns_number_total             5403
_reflns_number_gt                3943
_reflns_threshold_expression 'I>3\s, non-overlapped & non-partial reflections'
_diffrn_reflns_av_R_equivalents  0.0167
_diffrn_reflns_theta_max         41.43
_diffrn_reflns_theta_full        28.28
_diffrn_measured_fraction_theta_full 1.0
_diffrn_measured_fraction_theta_max  0.97
_diffrn_reflns_limit_h_min       -21
_diffrn_reflns_limit_h_max        21
_diffrn_reflns_limit_k_min       -19
_diffrn_reflns_limit_k_max        19
_diffrn_reflns_limit_l_min       -24
_diffrn_reflns_limit_l_max        24
_diffrn_standards_number          ?
_diffrn_standards_interval_time   ?
_diffrn_standards_decay_%         ?
_refine_ls_structure_factor_coef  Fsqd 
_refine_ls_R_factor_gt            0.0178
_refine_ls_wR_factor_ref          0.0201
_refine_ls_hydrogen_treatment     refall
_refine_ls_number_reflns          3943
_refine_ls_number_parameters      604
_refine_ls_goodness_of_fit_ref    1.14
_refine_ls_weighting_scheme       calc                        
_refine_ls_weighting_details
;    calc w2 = q/[s^2^(Fo^2^) + (0.015 P)^2^ + 0.056 P + 0.00 + 0.00 sin(th)]
     where P = (1.0000 Fo^2^ + 0.0000 Fc^2^)
           q = 1.0
;
_refine_ls_shift/su_max           0.0000
_refine_diff_density_max           0.15
_refine_diff_density_min          -0.11
_refine_ls_extinction_method      none
_refine_ls_extinction_coef        0.0                                   
_atom_type_scat_source          'Volkov et al, (2006)'
_computing_data_collection      'CrystalClear,(2005)'
_computing_cell_refinement      'Otwinowski & Minor (1997)'
_computing_data_reduction       'Zhurov et al,(2005)'
_computing_structure_solution   'Sheldrick (1997)'
_computing_structure_refinement 'Volkov et al, (2006)'
_computing_molecular_graphics   'Volkov et al, (2006)'
_computing_publication_material 'Volkov et al, (2006)'

 
# Atomic coordinates

loop_
_atom_site_label
_atom_site_fract_x
_atom_site_fract_y
_atom_site_fract_z
_atom_site_occupancy
_atom_site_symmetry_multiplicity
_atom_site_U_iso_or_equiv
O(1)    0.56846(13)    0.43427(18)    0.26465(11)    1    8    0.047
O(2)    0.59453(15)    0.2404(2)      0.23053(19)    1    8    0.056
O(3)    0.4734(2)      0.1388(2)     -0.0225(2)      1    8    0.063
O(4)    0.3558(2)      0.2495(3)     -0.11238(10)    1    8    0.060
O(5)    0.3181(3)      0.5303(3)     -0.06806(17)    1    8    0.067
O(6)    0.4286(2)      0.6011(2)      0.0492(3)      1    8    0.065
N(1)    0.43638(6)     0.33385(7)     0.17584(5)     1    8    0.035
N(2)    0.32231(5)     0.23197(6)     0.05389(4)     1    8    0.030
N(3)    0.29900(5)     0.45348(7)     0.08838(5)     1    8    0.033
N(4)    0.53777(3)     0.33516(4)     0.22628(3)     1    8    0.035
N(5)    0.38834(4)     0.20759(4)    -0.03308(3)     1    8    0.039
N(6)    0.35299(4)     0.52971(4)     0.01650(4)     1    8    0.043
C(1)    0.35799(4)     0.43950(5)     0.18450(4)     1    8    0.037
C(2)    0.38140(4)     0.21557(4)     0.14950(3)     1    8    0.034
C(3)    0.24458(3)     0.33936(5)     0.05038(3)     1    8    0.032
H(1A)   0.402891       0.524029       0.207732       1    8    0.065
H(1B)   0.290711       0.420236       0.239911       1    8    0.061
H(2A)   0.443314       0.139185       0.1495         1    8    0.058
H(2B)   0.317421       0.193899       0.207304       1    8    0.063
H(3A)   0.209356       0.353637      -0.025273       1    8    0.057
H(3B)   0.172134       0.320912       0.1007         1    8    0.049
 
# Dummy atom coordinates

loop_
_atom_dummy_label
_atom_dummy_fract_x
_atom_dummy_fract_y
_atom_dummy_fract_z
DUM0    0.3479         0.4709         0.2227
DUM1    0.3809         0.1675         0.1758
DUM2    0.1939         0.3351         0.0385
 
# Anisotropic displacement parameters

loop_
_atom_site_aniso_label
_atom_site_aniso_U_11
_atom_site_aniso_U_22
_atom_site_aniso_U_33
_atom_site_aniso_U_12
_atom_site_aniso_U_13
_atom_site_aniso_U_23
O(1) 0.0408(5) 0.0593(6) 0.0408(5) -0.0119(5) -0.0113(4) -0.0009(5)
O(2) 0.0423(6) 0.0564(9) 0.0689(8) 0.0073(6) -0.0204(6) 0.0066(8)
O(3) 0.0568(8) 0.0612(10) 0.0714(10) 0.0101(8) 0.0229(8) -0.0085(9)
O(4) 0.0726(10) 0.0821(10) 0.0264(4) -0.0031(10) 0.0094(5) -0.0055(5)
O(5) 0.0911(12) 0.0640(10) 0.0471(7) 0.0182(10) 0.0220(8) 0.0221(7)
O(6) 0.0523(8) 0.0417(7) 0.1001(11) -0.0062(6) 0.0263(8) 0.0076(9)
N(1) 0.0339(2) 0.0319(3) 0.0383(2) -0.0010(2) -0.0127(2) -0.0010(2)
N(2) 0.0289(2) 0.0371(3) 0.02528(18) -0.00503(19) 0.00113(17) -0.00411(19)
N(3) 0.0273(2) 0.0353(3) 0.0359(2) 0.0015(2) 0.00031(19) 0.0057(2)
N(4) 0.02999(15) 0.0465(2) 0.02858(14) -0.00488(15) -0.00636(12) 0.00632(15)
N(5) 0.04057(19) 0.0432(2) 0.03390(18) -0.00748(18) 0.01102(15) -0.00976(15)
N(6) 0.0399(2) 0.0346(2) 0.0559(3) 0.00943(19) 0.01869(19) 0.01223(19)
C(1) 0.0377(2) 0.0347(2) 0.0376(2) 0.00117(18) -0.00672(17) -0.00722(18)
C(2) 0.0421(2) 0.0295(2) 0.03100(18) -0.00463(17) -0.00540(16) 0.00395(15)
C(3) 0.02192(15) 0.0459(2) 0.02935(16) -0.00240(15) -0.00089(12) -0.00013(17)
H(1A) 0.056(8) 0.030(6) 0.109(12) -0.010(6) 0.009(8) -0.014(7)
H(1B) 0.069(8) 0.075(7) 0.040(5) 0.009(6) 0.013(5) -0.009(5)
H(2A) 0.051(7) 0.048(8) 0.076(8) 0.004(6) -0.014(6) -0.009(7)
H(2B) 0.070(8) 0.066(7) 0.053(7) -0.037(6) 0.007(6) 0.016(6)
H(3A) 0.053(7) 0.077(8) 0.041(6) 0.011(6) 0.002(6) 0.004(6)
H(3B) 0.039(6) 0.056(6) 0.054(7) 0.000(5) 0.009(5) -0.006(5)
 
loop_
_geom_bond_atom_site_label_1
_geom_bond_atom_site_label_2
_geom_bond_distance
_geom_bond_site_symmetry_1
_geom_bond_site_symmetry_2
_geom_bond_publ_flag
O(1)     N(4)      1.2306(16)          1_555     1_555     yes
O(2)     N(4)      1.213(2)            1_555     1_555     yes
O(3)     N(5)      1.241(3)            1_555     1_555     yes
O(4)     N(5)      1.200(2)            1_555     1_555     yes
O(5)     N(6)      1.188(3)            1_555     1_555     yes
O(6)     N(6)      1.242(3)            1_555     1_555     yes
N(1)     N(4)      1.3525(7)           1_555     1_555     yes
N(1)     C(1)      1.4582(8)           1_555     1_555     yes
N(1)     C(2)      1.4625(8)           1_555     1_555     yes
N(2)     N(5)      1.4051(7)           1_555     1_555     yes
N(2)     C(2)      1.4474(7)           1_555     1_555     yes
N(2)     C(3)      1.4643(8)           1_555     1_555     yes
N(3)     N(6)      1.4008(7)           1_555     1_555     yes
N(3)     C(1)      1.4497(8)           1_555     1_555     yes
N(3)     C(3)      1.4663(8)           1_555     1_555     yes
C(1)     H(1A)     1.0900              1_555     1_555     yes
C(1)     H(1B)     1.0900              1_555     1_555     yes
C(2)     H(2A)     1.0900              1_555     1_555     yes
C(2)     H(2B)     1.0900              1_555     1_555     yes
C(3)     H(3A)     1.0900              1_555     1_555     yes
C(3)     H(3B)     1.0900              1_555     1_555     yes
 
loop_
_geom_angle_atom_site_label_1
_geom_angle_atom_site_label_2
_geom_angle_atom_site_label_3
_geom_angle
_geom_angle_site_symmetry_1
_geom_angle_site_symmetry_2
_geom_angle_site_symmetry_3
_geom_angle_publ_flag
N(4)     N(1)      C(1)      119.77(6)         1_555    1_555    1_555    yes
N(4)     N(1)      C(2)      120.40(6)         1_555    1_555    1_555    yes
C(1)     N(1)      C(2)      114.88(5)         1_555    1_555    1_555    yes
N(5)     N(2)      C(2)      115.55(6)         1_555    1_555    1_555    yes
N(5)     N(2)      C(3)      117.19(5)         1_555    1_555    1_555    yes
C(2)     N(2)      C(3)      114.54(5)         1_555    1_555    1_555    yes
N(6)     N(3)      C(1)      116.22(6)         1_555    1_555    1_555    yes
N(6)     N(3)      C(3)      116.65(6)         1_555    1_555    1_555    yes
C(1)     N(3)      C(3)      114.62(5)         1_555    1_555    1_555    yes
O(1)     N(4)      O(2)      123.21(14)        1_555    1_555    1_555    yes
O(1)     N(4)      N(1)      117.63(9)         1_555    1_555    1_555    yes
O(2)     N(4)      N(1)      119.15(12)        1_555    1_555    1_555    yes
O(3)     N(5)      O(4)      124.84(18)        1_555    1_555    1_555    yes
O(3)     N(5)      N(2)      116.95(14)        1_555    1_555    1_555    yes
O(4)     N(5)      N(2)      118.12(13)        1_555    1_555    1_555    yes
O(5)     N(6)      O(6)      124.3(2)          1_555    1_555    1_555    yes
O(5)     N(6)      N(3)      119.16(19)        1_555    1_555    1_555    yes
O(6)     N(6)      N(3)      116.18(17)        1_555    1_555    1_555    yes
N(1)     C(1)      N(3)      107.86(5)         1_555    1_555    1_555    yes
N(1)     C(1)      H(1A)     111.73            1_555    1_555    1_555    yes
N(1)     C(1)      H(1B)     110.64            1_555    1_555    1_555    yes
N(3)     C(1)      H(1A)     112.71            1_555    1_555    1_555    yes
N(3)     C(1)      H(1B)     105.57            1_555    1_555    1_555    yes
H(1A)    C(1)      H(1B)     108.16            1_555    1_555    1_555    yes
N(1)     C(2)      N(2)      107.98(4)         1_555    1_555    1_555    yes
N(1)     C(2)      H(2A)     111.38            1_555    1_555    1_555    yes
N(1)     C(2)      H(2B)     108.43            1_555    1_555    1_555    yes
N(2)     C(2)      H(2A)     113.82            1_555    1_555    1_555    yes
N(2)     C(2)      H(2B)     108.27            1_555    1_555    1_555    yes
H(2A)    C(2)      H(2B)     106.80            1_555    1_555    1_555    yes
N(2)     C(3)      N(3)      112.38(4)         1_555    1_555    1_555    yes
N(2)     C(3)      H(3A)     111.77            1_555    1_555    1_555    yes
N(2)     C(3)      H(3B)     108.27            1_555    1_555    1_555    yes
N(3)     C(3)      H(3A)     110.96            1_555    1_555    1_555    yes
N(3)     C(3)      H(3B)     106.00            1_555    1_555    1_555    yes
H(3A)    C(3)      H(3B)     107.12            1_555    1_555    1_555    yes
 
# Multipole parameters

loop_
_atom_rho_multipole_atom_label
_atom_rho_multipole_coeff_Pv
_atom_rho_multipole_coeff_P00
_atom_rho_multipole_coeff_P11
_atom_rho_multipole_coeff_P1-1
_atom_rho_multipole_coeff_P10
_atom_rho_multipole_coeff_P20
_atom_rho_multipole_coeff_P21
_atom_rho_multipole_coeff_P2-1
_atom_rho_multipole_coeff_P22
_atom_rho_multipole_coeff_P2-2
_atom_rho_multipole_coeff_P30
_atom_rho_multipole_coeff_P31
_atom_rho_multipole_coeff_P3-1
_atom_rho_multipole_coeff_P32
_atom_rho_multipole_coeff_P3-2
_atom_rho_multipole_coeff_P33
_atom_rho_multipole_coeff_P3-3
_atom_rho_multipole_coeff_P40
_atom_rho_multipole_coeff_P41
_atom_rho_multipole_coeff_P4-1
_atom_rho_multipole_coeff_P42
_atom_rho_multipole_coeff_P4-2
_atom_rho_multipole_coeff_P43
_atom_rho_multipole_coeff_P4-3
_atom_rho_multipole_coeff_P44
_atom_rho_multipole_coeff_P4-4
_atom_rho_multipole_kappa
_atom_rho_multipole_kappa_prime0
_atom_rho_multipole_kappa_prime1
_atom_rho_multipole_kappa_prime2
_atom_rho_multipole_kappa_prime3
_atom_rho_multipole_kappa_prime4
_atom_rho_multipole_radial_slater_n0
_atom_rho_multipole_radial_slater_zeta0
_atom_rho_multipole_radial_slater_n1
_atom_rho_multipole_radial_slater_zeta1
_atom_rho_multipole_radial_slater_n2
_atom_rho_multipole_radial_slater_zeta2
_atom_rho_multipole_radial_slater_n3
_atom_rho_multipole_radial_slater_zeta3
_atom_rho_multipole_radial_slater_n4
_atom_rho_multipole_radial_slater_zeta4
O(1) 6.040500(19) 0 0.04(2) 0.09(2) 0.03(2)
0.04(3) 0.00(3) 0.01(3) 0.27(2) 0.13(2)
-0.067(11) -0.131(10) -0.085(10) 0.034(10) 0.055(11) -0.231(10) -0.056(11)
-0.014(14) -0.014(13) -0.031(13) 0.012(13) -0.037(14) -0.015(13) 0.016(14)
0.023(13) -0.066(13)
0.970(2) 1.305(16) 1.305201 1.305201 1.305201 1.305201
2 4.4974 2 4.4974 2 4.4974 3 4.4974 4 4.4974
O(2) 6.16420(2) 0 -0.31(3) -0.15(2) -0.18(3)
-0.26(4) 0.07(4) 0.07(4) 0.16(3) 0.18(3)
0.186(15) 0.001(14) 0.129(14) -0.127(12) -0.194(13) -0.064(11) -0.249(11)
-0.03(2) -0.096(19) -0.064(19) 0.039(17) -0.069(18) 0.040(16) 0.068(16)
0.064(14) 0.077(14)
0.970(2) 1.305(16) 1.305201 1.305201 1.305201 1.305201
2 4.4974 2 4.4974 2 4.4974 3 4.4974 4 4.4974
O(3) 5.90880(2) 0 0.11(3) 0.29(3) -0.27(4)
0.05(5) 0.05(4) -0.07(4) 0.21(3) 0.15(4)
-0.132(17) -0.153(15) 0.139(16) 0.122(15) 0.032(17) -0.275(14) 0.046(16)
0.01(2) 0.04(2) -0.03(2) -0.04(2) -0.11(2) 0.01(2) 0.03(2) -0.028(19) -0.081(19)
0.970(2) 1.305(16) 1.305201 1.305201 1.305201 1.305201
2 4.4974 2 4.4974 2 4.4974 3 4.4974 4 4.4974
O(4) 6.13670(2) 0 -0.24(3) -0.18(3) -0.03(3)
-0.15(5) -0.03(4) -0.06(4) 0.08(3) 0.14(3)
-0.114(15) -0.006(15) 0.001(14) 0.135(13) 0.061(15) -0.036(13) -0.230(13)
0.02(2) 0.03(2) 0.03(2) 0.022(18) 0.01(2) -0.037(18) -0.021(18) 0.023(16)
0.024(16)
0.970(2) 1.305(16) 1.305201 1.305201 1.305201 1.305201
2 4.4974 2 4.4974 2 4.4974 3 4.4974 4 4.4974
O(5) 6.19290(2) 0 -0.42(4) -0.28(3) 0.11(3)
-0.07(4) -0.03(5) -0.09(4) 0.08(4) 0.18(4)
0.311(16) 0.008(16) -0.072(16) -0.285(15) -0.176(18) -0.161(19) -0.390(19)
-0.03(2) -0.02(2) 0.03(2) 0.01(2) 0.07(2) 0.18(2) -0.06(2) 0.20(2) 0.06(2)
0.970(2) 1.305(16) 1.305201 1.305201 1.305201 1.305201
2 4.4974 2 4.4974 2 4.4974 3 4.4974 4 4.4974
O(6) 5.92060(2) 0 0.23(4) 0.22(3) -0.12(3)
-0.04(4) -0.00(4) 0.13(4) 0.33(4) 0.07(4)
0.070(15) -0.284(15) -0.178(15) -0.089(15) -0.180(18) -0.211(17) 0.212(18)
0.02(2) 0.03(2) 0.021(19) 0.038(19) -0.05(2) 0.06(2) -0.07(2) -0.10(2) -0.06(2)
0.970(2) 1.305(16) 1.305201 1.305201 1.305201 1.305201
2 4.4974 2 4.4974 2 4.4974 3 4.4974 4 4.4974
N(1) 4.823800(7) 0 0.103(15) -0.084(14) 0.031(14)
0.058(14) 0.021(16) -0.006(14) 0.067(15) -0.023(15)
0.005(10) -0.015(10) 0.016(9) 0.040(10) 0.030(10) 0.048(10) -0.156(10)
-0.008(12) -0.029(12) 0.002(11) 0.012(12) 0.031(12) 0.013(13) -0.012(11)
-0.022(12) -0.016(11)
0.992(3) 1.09(4) 1.086398 1.086398 1.086398 1.086398
2 3.81056 2 3.81056 2 3.81056 3 3.81056 4 3.81056
N(2) 4.783200(8) 0 0.070(15) -0.056(13) 0.042(11)
0.063(12) -0.015(13) -0.014(11) 0.070(14) 0.007(14)
0.024(9) -0.037(8) -0.008(8) -0.025(9) -0.068(9) 0.032(10) -0.121(9)
0.007(11) 0.020(10) -0.008(10) 0.002(11) 0.027(10) -0.014(12) 0.024(10)
-0.009(12) -0.019(11)
0.992(3) 1.09(4) 1.086398 1.086398 1.086398 1.086398
2 3.81056 2 3.81056 2 3.81056 3 3.81056 4 3.81056
N(3) 4.794600(9) 0 -0.067(15) -0.010(15) -0.055(13)
0.073(13) -0.030(14) -0.051(14) 0.047(15) -0.013(15)
0.026(9) -0.042(9) 0.023(9) 0.041(10) -0.022(9) 0.016(10) -0.108(9)
-0.006(12) 0.000(11) -0.002(11) 0.026(12) 0.005(11) 0.012(12) 0.057(11)
0.010(12) -0.015(11)
0.992(3) 1.09(4) 1.086398 1.086398 1.086398 1.086398
2 3.81056 2 3.81056 2 3.81056 3 3.81056 4 3.81056
N(4) 5.130100(12) 0 -0.009(16) 0.075(19) -0.082(14)
-0.387(16) 0.043(15) 0.037(14) 0.137(19) -0.132(17)
0.095(18) 0.072(15) -0.037(15) -0.141(17) -0.005(18) -0.16(2) -0.41(2)
0.11(2) -0.04(2) -0.047(19) -0.098(19) 0.023(19) 0.09(2) 0.08(2) 0.34(3) 0.03(2)
0.964(2) 0.668(10) 0.667662 0.667662 0.667662 0.667662
2 3.81056 2 3.81056 2 3.81056 3 3.81056 4 3.81056
N(5) 5.102800(14) 0 -0.006(18) 0.011(17) 0.053(14)
-0.341(17) 0.015(17) -0.058(15) 0.162(19) -0.090(19)
-0.05(2) -0.034(16) -0.040(17) 0.046(18) -0.08(2) -0.13(2) -0.42(2)
0.06(2) -0.05(2) 0.01(2) -0.02(2) 0.03(2) -0.06(2) -0.02(3) 0.34(3) 0.03(3)
0.964(2) 0.668(10) 0.667662 0.667662 0.667662 0.667662
2 3.81056 2 3.81056 2 3.81056 3 3.81056 4 3.81056
N(6) 5.093500(15) 0 -0.008(18) -0.025(19) -0.038(15)
-0.366(17) 0.002(18) 0.038(16) 0.17(2) 0.28(2)
0.02(2) -0.013(17) -0.005(17) -0.10(2) 0.02(2) 0.45(3) -0.41(2)
0.12(2) 0.05(2) -0.04(2) -0.03(2) -0.09(2) 0.01(3) 0.01(3) 0.35(4) -0.06(3)
0.964(2) 0.668(10) 0.667662 0.667662 0.667662 0.667662
2 3.81056 2 3.81056 2 3.81056 3 3.81056 4 3.81056
C(1) 4.244200(9) 0 0.216(19) -0.03(2) -0.017(19)
-0.03(2) 0.057(16) -0.06(2) 0.066(19) -0.06(2)
0.14(2) 0.10(3) 0.004(18) 0.40(2) -0.10(3) 0.04(2) -0.06(2)
-0.11(2) 0.05(3) 0.01(2) -0.11(2) 0.02(3) 0.04(2) -0.05(2) 0.13(2) -0.02(2)
0.964(3) 0.864(14) 0.863756 0.863756 0.863756 0.863756
2 3.1303 2 3.1303 2 3.1303 3 3.1303 4 3.1303
C(2) 4.271800(6) 0 0.054(19) -0.052(19) 0.106(18)
0.011(19) -0.004(15) 0.074(18) 0.109(18) -0.05(2)
0.020(19) 0.04(2) -0.005(17) 0.39(2) -0.08(3) -0.042(19) 0.09(2)
-0.13(2) 0.05(3) -0.03(2) -0.05(2) -0.03(2) 0.01(2) -0.05(2) 0.08(2) -0.04(2)
0.964(3) 0.864(14) 0.863756 0.863756 0.863756 0.863756
2 3.1303 2 3.1303 2 3.1303 3 3.1303 4 3.1303
C(3) 4.269300(9) 0 -0.022(17) -0.02(2) 0.098(17)
0.014(17) 0.001(14) 0.037(18) 0.087(16) -0.01(2)
0.050(17) -0.01(2) 0.001(17) 0.42(2) -0.05(2) -0.024(19) 0.07(2)
-0.13(2) 0.03(2) 0.01(2) -0.01(2) -0.01(2) -0.01(2) 0.03(2) 0.09(2) -0.05(2)
0.964(3) 0.864(14) 0.863756 0.863756 0.863756 0.863756
2 3.1303 2 3.1303 2 3.1303 3 3.1303 4 3.1303
H(1A) 0.730800(11) 0 -0.10(2) -0.14(2) 0.130(15)
0.00(2) 0 0 0 0
0 0 0 0 0 0 0
0 0 0 0 0 0 0 0 0
1.2 1.2 1.2 1.2 1.2 1.2
0 1.9154 1 1.9154 2 1.9154 3 1.9154 4 1.9154
H(1B) 1.065700(9) 0 0.01(3) 0.07(3) 0.224(15)
0.10(2) 0 0 0 0
0 0 0 0 0 0 0
0 0 0 0 0 0 0 0 0
1.2 1.2 1.2 1.2 1.2 1.2
0 1.9154 1 1.9154 2 1.9154 3 1.9154 4 1.9154
H(2A) 0.773900(8) 0 0.01(2) -0.15(3) 0.169(14)
0.03(2) 0 0 0 0
0 0 0 0 0 0 0
0 0 0 0 0 0 0 0 0
1.2 1.2 1.2 1.2 1.2 1.2
0 1.9154 1 1.9154 2 1.9154 3 1.9154 4 1.9154
H(2B) 0.905500(7) 0 -0.12(2) 0.02(2) 0.138(14)
0.10(2) 0 0 0 0
0 0 0 0 0 0 0
0 0 0 0 0 0 0 0 0
1.2 1.2 1.2 1.2 1.2 1.2
0 1.9154 1 1.9154 2 1.9154 3 1.9154 4 1.9154
H(3A) 0.830500(9) 0 0.01(2) -0.08(3) 0.198(14)
0.02(2) 0 0 0 0
0 0 0 0 0 0 0
0 0 0 0 0 0 0 0 0
1.2 1.2 1.2 1.2 1.2 1.2
0 1.9154 1 1.9154 2 1.9154 3 1.9154 4 1.9154
H(3B) 0.815400(10) 0 -0.00(2) -0.06(2) 0.162(14)
0.02(2) 0 0 0 0
0 0 0 0 0 0 0
0 0 0 0 0 0 0 0 0
1.2 1.2 1.2 1.2 1.2 1.2
0 1.9154 1 1.9154 2 1.9154 3 1.9154 4 1.9154
 
loop_
_atom_local_axes_atom_label
_atom_local_axes_atom0
_atom_local_axes_ax1
_atom_local_axes_atom1
_atom_local_axes_atom2
_atom_local_axes_ax2
O(1)       N(4)        Y           O(1)        O(2)        X
O(2)       N(4)        Y           O(2)        O(1)        X
O(3)       N(5)        Y           O(3)        O(4)        X
O(4)       N(5)        Y           O(4)        O(3)        X
O(5)       N(6)        Y           O(5)        O(6)        X
O(6)       N(6)        Y           O(6)        O(5)        X
N(1)       N(4)        Y           N(1)        C(2)        X
N(2)       N(5)        Y           N(2)        C(3)        X
N(3)       N(6)        Y           N(3)        C(1)        X
N(4)       N(1)        Y           N(4)        O(1)        X
N(5)       N(2)        Y           N(5)        O(3)        X
N(6)       N(3)        Y           N(6)        O(5)        X
C(1)       DUM0        Z           C(1)        N(3)        Y
C(2)       DUM1        Z           C(2)        N(1)        Y
C(3)       DUM2        Z           C(3)        N(2)        Y
H(1A)      C(1)        Z           H(1A)       H(1B)       Y
H(1B)      C(1)        Z           H(1B)       H(1A)       Y
H(2A)      C(2)        Z           H(2A)       H(2B)       Y
H(2B)      C(2)        Z           H(2B)       H(2A)       Y
H(3A)      C(3)        Z           H(3A)       H(3B)       Y
H(3B)      C(3)        Z           H(3B)       H(3A)       Y

